/*---------------------------------------------------------------------------*\
| =========                 |                                                 |
| \\      /  F ield         | OpenFOAM: The Open Source CFD Toolbox           |
|  \\    /   O peration     | Version:  v1912                                 |
|   \\  /    A nd           | Website:  www.openfoam.com                      |
|    \\/     M anipulation  |                                                 |
\*---------------------------------------------------------------------------*/
Build  : _f3950763fe-20191219 OPENFOAM=1912
Arch   : "LSB;label=32;scalar=64"
Exec   : reconstructPar
Date   : Aug 13 2020
Time   : 06:43:14
Host   : cnode18.local
PID    : 12015
I/O    : uncollated
Case   : /home/mech432/scr0/solved/laminarPipe1
nProcs : 1
trapFpe: Floating point exception trapping enabled (FOAM_SIGFPE).
fileModificationChecking : Monitoring run-time modified files using timeStampMaster (fileModificationSkew 10)
allowSystemOperations : Allowing user-supplied system call operations

// * * * * * * * * * * * * * * * * * * * * * * * * * * * * * * * * * * * * * //
Create time



Reconstructing fields for mesh region0

Time = 1

Reconstructing FV fields

    Reconstructing volScalarFields

        p

    Reconstructing volVectorFields

        U

    Reconstructing surfaceScalarFields

        phi

Reconstructing point fields

No point fields

No lagrangian fields

No FA fields

Time = 2

Reconstructing FV fields

    Reconstructing volScalarFields

        p

    Reconstructing volVectorFields

        U

    Reconstructing surfaceScalarFields

        phi

Reconstructing point fields

No point fields

No lagrangian fields

No FA fields

Time = 3

Reconstructing FV fields

    Reconstructing volScalarFields

        p

    Reconstructing volVectorFields

        U

    Reconstructing surfaceScalarFields

        phi

Reconstructing point fields

No point fields

No lagrangian fields

No FA fields

Time = 4

Reconstructing FV fields

    Reconstructing volScalarFields

        p

    Reconstructing volVectorFields

        U

    Reconstructing surfaceScalarFields

        phi

Reconstructing point fields

No point fields

No lagrangian fields

No FA fields

Time = 5

Reconstructing FV fields

    Reconstructing volScalarFields

        p

    Reconstructing volVectorFields

        U

    Reconstructing surfaceScalarFields

        phi

Reconstructing point fields

No point fields

No lagrangian fields

No FA fields

Time = 6

Reconstructing FV fields

    Reconstructing volScalarFields

        p

    Reconstructing volVectorFields

        U

    Reconstructing surfaceScalarFields

        phi

Reconstructing point fields

No point fields

No lagrangian fields

No FA fields

Time = 7

Reconstructing FV fields

    Reconstructing volScalarFields

        p

    Reconstructing volVectorFields

        U

    Reconstructing surfaceScalarFields

        phi

Reconstructing point fields

No point fields

No lagrangian fields

No FA fields

Time = 8

Reconstructing FV fields

    Reconstructing volScalarFields

        p

    Reconstructing volVectorFields

        U

    Reconstructing surfaceScalarFields

        phi

Reconstructing point fields

No point fields

No lagrangian fields

No FA fields

Time = 9

Reconstructing FV fields

    Reconstructing volScalarFields

        p

    Reconstructing volVectorFields

        U

    Reconstructing surfaceScalarFields

        phi

Reconstructing point fields

No point fields

No lagrangian fields

No FA fields

Time = 10

Reconstructing FV fields

    Reconstructing volScalarFields

        p

    Reconstructing volVectorFields

        U

    Reconstructing surfaceScalarFields

        phi

Reconstructing point fields

No point fields

No lagrangian fields

No FA fields

Time = 11

Reconstructing FV fields

    Reconstructing volScalarFields

        p

    Reconstructing volVectorFields

        U

    Reconstructing surfaceScalarFields

        phi

Reconstructing point fields

No point fields

No lagrangian fields

No FA fields

Time = 12

Reconstructing FV fields

    Reconstructing volScalarFields

        p

    Reconstructing volVectorFields

        U

    Reconstructing surfaceScalarFields

        phi

Reconstructing point fields

No point fields

No lagrangian fields

No FA fields

Time = 13

Reconstructing FV fields

    Reconstructing volScalarFields

        p

    Reconstructing volVectorFields

        U

    Reconstructing surfaceScalarFields

        phi

Reconstructing point fields

No point fields

No lagrangian fields

No FA fields

Time = 14

Reconstructing FV fields

    Reconstructing volScalarFields

        p

    Reconstructing volVectorFields

        U

    Reconstructing surfaceScalarFields

        phi

Reconstructing point fields

No point fields

No lagrangian fields

No FA fields

Time = 15

Reconstructing FV fields

    Reconstructing volScalarFields

        p

    Reconstructing volVectorFields

        U

    Reconstructing surfaceScalarFields

        phi

Reconstructing point fields

No point fields

No lagrangian fields

No FA fields

Time = 16

Reconstructing FV fields

    Reconstructing volScalarFields

        p

    Reconstructing volVectorFields

        U

    Reconstructing surfaceScalarFields

        phi

Reconstructing point fields

No point fields

No lagrangian fields

No FA fields

Time = 17

Reconstructing FV fields

    Reconstructing volScalarFields

        p

    Reconstructing volVectorFields

        U

    Reconstructing surfaceScalarFields

        phi

Reconstructing point fields

No point fields

No lagrangian fields

No FA fields

Time = 18

Reconstructing FV fields

    Reconstructing volScalarFields

        p

    Reconstructing volVectorFields

        U

    Reconstructing surfaceScalarFields

        phi

Reconstructing point fields

No point fields

No lagrangian fields

No FA fields

Time = 19

Reconstructing FV fields

    Reconstructing volScalarFields

        p

    Reconstructing volVectorFields

        U

    Reconstructing surfaceScalarFields

        phi

Reconstructing point fields

No point fields

No lagrangian fields

No FA fields

Time = 20

Reconstructing FV fields

    Reconstructing volScalarFields

        p

    Reconstructing volVectorFields

        U

    Reconstructing surfaceScalarFields

        phi

Reconstructing point fields

No point fields

No lagrangian fields

No FA fields

Time = 21

Reconstructing FV fields

    Reconstructing volScalarFields

        p

    Reconstructing volVectorFields

        U

    Reconstructing surfaceScalarFields

        phi

Reconstructing point fields

No point fields

No lagrangian fields

No FA fields

Time = 22

Reconstructing FV fields

    Reconstructing volScalarFields

        p

    Reconstructing volVectorFields

        U

    Reconstructing surfaceScalarFields

        phi

Reconstructing point fields

No point fields

No lagrangian fields

No FA fields

Time = 23

Reconstructing FV fields

    Reconstructing volScalarFields

        p

    Reconstructing volVectorFields

        U

    Reconstructing surfaceScalarFields

        phi

Reconstructing point fields

No point fields

No lagrangian fields

No FA fields

Time = 24

Reconstructing FV fields

    Reconstructing volScalarFields

        p

    Reconstructing volVectorFields

        U

    Reconstructing surfaceScalarFields

        phi

Reconstructing point fields

No point fields

No lagrangian fields

No FA fields

Time = 25

Reconstructing FV fields

    Reconstructing volScalarFields

        p

    Reconstructing volVectorFields

        U

    Reconstructing surfaceScalarFields

        phi

Reconstructing point fields

No point fields

No lagrangian fields

No FA fields

Time = 26

Reconstructing FV fields

    Reconstructing volScalarFields

        p

    Reconstructing volVectorFields

        U

    Reconstructing surfaceScalarFields

        phi

Reconstructing point fields

No point fields

No lagrangian fields

No FA fields

Time = 27

Reconstructing FV fields

    Reconstructing volScalarFields

        p

    Reconstructing volVectorFields

        U

    Reconstructing surfaceScalarFields

        phi

Reconstructing point fields

No point fields

No lagrangian fields

No FA fields

Time = 28

Reconstructing FV fields

    Reconstructing volScalarFields

        p

    Reconstructing volVectorFields

        U

    Reconstructing surfaceScalarFields

        phi

Reconstructing point fields

No point fields

No lagrangian fields

No FA fields

Time = 29

Reconstructing FV fields

    Reconstructing volScalarFields

        p

    Reconstructing volVectorFields

        U

    Reconstructing surfaceScalarFields

        phi

Reconstructing point fields

No point fields

No lagrangian fields

No FA fields

Time = 30

Reconstructing FV fields

    Reconstructing volScalarFields

        p

    Reconstructing volVectorFields

        U

    Reconstructing surfaceScalarFields

        phi

Reconstructing point fields

No point fields

No lagrangian fields

No FA fields

Time = 31

Reconstructing FV fields

    Reconstructing volScalarFields

        p

    Reconstructing volVectorFields

        U

    Reconstructing surfaceScalarFields

        phi

Reconstructing point fields

No point fields

No lagrangian fields

No FA fields

Time = 32

Reconstructing FV fields

    Reconstructing volScalarFields

        p

    Reconstructing volVectorFields

        U

    Reconstructing surfaceScalarFields

        phi

Reconstructing point fields

No point fields

No lagrangian fields

No FA fields

Time = 33

Reconstructing FV fields

    Reconstructing volScalarFields

        p

    Reconstructing volVectorFields

        U

    Reconstructing surfaceScalarFields

        phi

Reconstructing point fields

No point fields

No lagrangian fields

No FA fields

Time = 34

Reconstructing FV fields

    Reconstructing volScalarFields

        p

    Reconstructing volVectorFields

        U

    Reconstructing surfaceScalarFields

        phi

Reconstructing point fields

No point fields

No lagrangian fields

No FA fields

Time = 35

Reconstructing FV fields

    Reconstructing volScalarFields

        p

    Reconstructing volVectorFields

        U

    Reconstructing surfaceScalarFields

        phi

Reconstructing point fields

No point fields

No lagrangian fields

No FA fields

Time = 36

Reconstructing FV fields

    Reconstructing volScalarFields

        p

    Reconstructing volVectorFields

        U

    Reconstructing surfaceScalarFields

        phi

Reconstructing point fields

No point fields

No lagrangian fields

No FA fields

Time = 37

Reconstructing FV fields

    Reconstructing volScalarFields

        p

    Reconstructing volVectorFields

        U

    Reconstructing surfaceScalarFields

        phi

Reconstructing point fields

No point fields

No lagrangian fields

No FA fields

Time = 38

Reconstructing FV fields

    Reconstructing volScalarFields

        p

    Reconstructing volVectorFields

        U

    Reconstructing surfaceScalarFields

        phi

Reconstructing point fields

No point fields

No lagrangian fields

No FA fields

Time = 39

Reconstructing FV fields

    Reconstructing volScalarFields

        p

    Reconstructing volVectorFields

        U

    Reconstructing surfaceScalarFields

        phi

Reconstructing point fields

No point fields

No lagrangian fields

No FA fields

Time = 40

Reconstructing FV fields

    Reconstructing volScalarFields

        p

    Reconstructing volVectorFields

        U

    Reconstructing surfaceScalarFields

        phi

Reconstructing point fields

No point fields

No lagrangian fields

No FA fields

Time = 41

Reconstructing FV fields

    Reconstructing volScalarFields

        p

    Reconstructing volVectorFields

        U

    Reconstructing surfaceScalarFields

        phi

Reconstructing point fields

No point fields

No lagrangian fields

No FA fields

Time = 42

Reconstructing FV fields

    Reconstructing volScalarFields

        p

    Reconstructing volVectorFields

        U

    Reconstructing surfaceScalarFields

        phi

Reconstructing point fields

No point fields

No lagrangian fields

No FA fields

Time = 43

Reconstructing FV fields

    Reconstructing volScalarFields

        p

    Reconstructing volVectorFields

        U

    Reconstructing surfaceScalarFields

        phi

Reconstructing point fields

No point fields

No lagrangian fields

No FA fields

Time = 44

Reconstructing FV fields

    Reconstructing volScalarFields

        p

    Reconstructing volVectorFields

        U

    Reconstructing surfaceScalarFields

        phi

Reconstructing point fields

No point fields

No lagrangian fields

No FA fields

Time = 45

Reconstructing FV fields

    Reconstructing volScalarFields

        p

    Reconstructing volVectorFields

        U

    Reconstructing surfaceScalarFields

        phi

Reconstructing point fields

No point fields

No lagrangian fields

No FA fields

Time = 46

Reconstructing FV fields

    Reconstructing volScalarFields

        p

    Reconstructing volVectorFields

        U

    Reconstructing surfaceScalarFields

        phi

Reconstructing point fields

No point fields

No lagrangian fields

No FA fields

Time = 47

Reconstructing FV fields

    Reconstructing volScalarFields

        p

    Reconstructing volVectorFields

        U

    Reconstructing surfaceScalarFields

        phi

Reconstructing point fields

No point fields

No lagrangian fields

No FA fields

Time = 48

Reconstructing FV fields

    Reconstructing volScalarFields

        p

    Reconstructing volVectorFields

        U

    Reconstructing surfaceScalarFields

        phi

Reconstructing point fields

No point fields

No lagrangian fields

No FA fields

Time = 49

Reconstructing FV fields

    Reconstructing volScalarFields

        p

    Reconstructing volVectorFields

        U

    Reconstructing surfaceScalarFields

        phi

Reconstructing point fields

No point fields

No lagrangian fields

No FA fields

Time = 50

Reconstructing FV fields

    Reconstructing volScalarFields

        p

    Reconstructing volVectorFields

        U

    Reconstructing surfaceScalarFields

        phi

Reconstructing point fields

No point fields

No lagrangian fields

No FA fields

Time = 51

Reconstructing FV fields

    Reconstructing volScalarFields

        p

    Reconstructing volVectorFields

        U

    Reconstructing surfaceScalarFields

        phi

Reconstructing point fields

No point fields

No lagrangian fields

No FA fields

Time = 52

Reconstructing FV fields

    Reconstructing volScalarFields

        p

    Reconstructing volVectorFields

        U

    Reconstructing surfaceScalarFields

        phi

Reconstructing point fields

No point fields

No lagrangian fields

No FA fields

Time = 53

Reconstructing FV fields

    Reconstructing volScalarFields

        p

    Reconstructing volVectorFields

        U

    Reconstructing surfaceScalarFields

        phi

Reconstructing point fields

No point fields

No lagrangian fields

No FA fields

Time = 54

Reconstructing FV fields

    Reconstructing volScalarFields

        p

    Reconstructing volVectorFields

        U

    Reconstructing surfaceScalarFields

        phi

Reconstructing point fields

No point fields

No lagrangian fields

No FA fields

Time = 55

Reconstructing FV fields

    Reconstructing volScalarFields

        p

    Reconstructing volVectorFields

        U

    Reconstructing surfaceScalarFields

        phi

Reconstructing point fields

No point fields

No lagrangian fields

No FA fields

Time = 56

Reconstructing FV fields

    Reconstructing volScalarFields

        p

    Reconstructing volVectorFields

        U

    Reconstructing surfaceScalarFields

        phi

Reconstructing point fields

No point fields

No lagrangian fields

No FA fields

Time = 57

Reconstructing FV fields

    Reconstructing volScalarFields

        p

    Reconstructing volVectorFields

        U

    Reconstructing surfaceScalarFields

        phi

Reconstructing point fields

No point fields

No lagrangian fields

No FA fields

Time = 58

Reconstructing FV fields

    Reconstructing volScalarFields

        p

    Reconstructing volVectorFields

        U

    Reconstructing surfaceScalarFields

        phi

Reconstructing point fields

No point fields

No lagrangian fields

No FA fields

Time = 59

Reconstructing FV fields

    Reconstructing volScalarFields

        p

    Reconstructing volVectorFields

        U

    Reconstructing surfaceScalarFields

        phi

Reconstructing point fields

No point fields

No lagrangian fields

No FA fields

Time = 60

Reconstructing FV fields

    Reconstructing volScalarFields

        p

    Reconstructing volVectorFields

        U

    Reconstructing surfaceScalarFields

        phi

Reconstructing point fields

No point fields

No lagrangian fields

No FA fields

Time = 61

Reconstructing FV fields

    Reconstructing volScalarFields

        p

    Reconstructing volVectorFields

        U

    Reconstructing surfaceScalarFields

        phi

Reconstructing point fields

No point fields

No lagrangian fields

No FA fields

Time = 62

Reconstructing FV fields

    Reconstructing volScalarFields

        p

    Reconstructing volVectorFields

        U

    Reconstructing surfaceScalarFields

        phi

Reconstructing point fields

No point fields

No lagrangian fields

No FA fields

Time = 63

Reconstructing FV fields

    Reconstructing volScalarFields

        p

    Reconstructing volVectorFields

        U

    Reconstructing surfaceScalarFields

        phi

Reconstructing point fields

No point fields

No lagrangian fields

No FA fields

Time = 64

Reconstructing FV fields

    Reconstructing volScalarFields

        p

    Reconstructing volVectorFields

        U

    Reconstructing surfaceScalarFields

        phi

Reconstructing point fields

No point fields

No lagrangian fields

No FA fields

Time = 65

Reconstructing FV fields

    Reconstructing volScalarFields

        p

    Reconstructing volVectorFields

        U

    Reconstructing surfaceScalarFields

        phi

Reconstructing point fields

No point fields

No lagrangian fields

No FA fields

Time = 66

Reconstructing FV fields

    Reconstructing volScalarFields

        p

    Reconstructing volVectorFields

        U

    Reconstructing surfaceScalarFields

        phi

Reconstructing point fields

No point fields

No lagrangian fields

No FA fields

Time = 67

Reconstructing FV fields

    Reconstructing volScalarFields

        p

    Reconstructing volVectorFields

        U

    Reconstructing surfaceScalarFields

        phi

Reconstructing point fields

No point fields

No lagrangian fields

No FA fields

Time = 68

Reconstructing FV fields

    Reconstructing volScalarFields

        p

    Reconstructing volVectorFields

        U

    Reconstructing surfaceScalarFields

        phi

Reconstructing point fields

No point fields

No lagrangian fields

No FA fields

Time = 69

Reconstructing FV fields

    Reconstructing volScalarFields

        p

    Reconstructing volVectorFields

        U

    Reconstructing surfaceScalarFields

        phi

Reconstructing point fields

No point fields

No lagrangian fields

No FA fields

Time = 70

Reconstructing FV fields

    Reconstructing volScalarFields

        p

    Reconstructing volVectorFields

        U

    Reconstructing surfaceScalarFields

        phi

Reconstructing point fields

No point fields

No lagrangian fields

No FA fields

Time = 71

Reconstructing FV fields

    Reconstructing volScalarFields

        p

    Reconstructing volVectorFields

        U

    Reconstructing surfaceScalarFields

        phi

Reconstructing point fields

No point fields

No lagrangian fields

No FA fields

Time = 72

Reconstructing FV fields

    Reconstructing volScalarFields

        p

    Reconstructing volVectorFields

        U

    Reconstructing surfaceScalarFields

        phi

Reconstructing point fields

No point fields

No lagrangian fields

No FA fields

Time = 73

Reconstructing FV fields

    Reconstructing volScalarFields

        p

    Reconstructing volVectorFields

        U

    Reconstructing surfaceScalarFields

        phi

Reconstructing point fields

No point fields

No lagrangian fields

No FA fields

Time = 74

Reconstructing FV fields

    Reconstructing volScalarFields

        p

    Reconstructing volVectorFields

        U

    Reconstructing surfaceScalarFields

        phi

Reconstructing point fields

No point fields

No lagrangian fields

No FA fields

Time = 75

Reconstructing FV fields

    Reconstructing volScalarFields

        p

    Reconstructing volVectorFields

        U

    Reconstructing surfaceScalarFields

        phi

Reconstructing point fields

No point fields

No lagrangian fields

No FA fields

Time = 76

Reconstructing FV fields

    Reconstructing volScalarFields

        p

    Reconstructing volVectorFields

        U

    Reconstructing surfaceScalarFields

        phi

Reconstructing point fields

No point fields

No lagrangian fields

No FA fields

Time = 77

Reconstructing FV fields

    Reconstructing volScalarFields

        p

    Reconstructing volVectorFields

        U

    Reconstructing surfaceScalarFields

        phi

Reconstructing point fields

No point fields

No lagrangian fields

No FA fields

Time = 78

Reconstructing FV fields

    Reconstructing volScalarFields

        p

    Reconstructing volVectorFields

        U

    Reconstructing surfaceScalarFields

        phi

Reconstructing point fields

No point fields

No lagrangian fields

No FA fields

Time = 79

Reconstructing FV fields

    Reconstructing volScalarFields

        p

    Reconstructing volVectorFields

        U

    Reconstructing surfaceScalarFields

        phi

Reconstructing point fields

No point fields

No lagrangian fields

No FA fields

Time = 80

Reconstructing FV fields

    Reconstructing volScalarFields

        p

    Reconstructing volVectorFields

        U

    Reconstructing surfaceScalarFields

        phi

Reconstructing point fields

No point fields

No lagrangian fields

No FA fields

Time = 81

Reconstructing FV fields

    Reconstructing volScalarFields

        p

    Reconstructing volVectorFields

        U

    Reconstructing surfaceScalarFields

        phi

Reconstructing point fields

No point fields

No lagrangian fields

No FA fields

Time = 82

Reconstructing FV fields

    Reconstructing volScalarFields

        p

    Reconstructing volVectorFields

        U

    Reconstructing surfaceScalarFields

        phi

Reconstructing point fields

No point fields

No lagrangian fields

No FA fields

Time = 83

Reconstructing FV fields

    Reconstructing volScalarFields

        p

    Reconstructing volVectorFields

        U

    Reconstructing surfaceScalarFields

        phi

Reconstructing point fields

No point fields

No lagrangian fields

No FA fields

Time = 84

Reconstructing FV fields

    Reconstructing volScalarFields

        p

    Reconstructing volVectorFields

        U

    Reconstructing surfaceScalarFields

        phi

Reconstructing point fields

No point fields

No lagrangian fields

No FA fields

Time = 85

Reconstructing FV fields

    Reconstructing volScalarFields

        p

    Reconstructing volVectorFields

        U

    Reconstructing surfaceScalarFields

        phi

Reconstructing point fields

No point fields

No lagrangian fields

No FA fields

Time = 86

Reconstructing FV fields

    Reconstructing volScalarFields

        p

    Reconstructing volVectorFields

        U

    Reconstructing surfaceScalarFields

        phi

Reconstructing point fields

No point fields

No lagrangian fields

No FA fields

Time = 87

Reconstructing FV fields

    Reconstructing volScalarFields

        p

    Reconstructing volVectorFields

        U

    Reconstructing surfaceScalarFields

        phi

Reconstructing point fields

No point fields

No lagrangian fields

No FA fields

Time = 88

Reconstructing FV fields

    Reconstructing volScalarFields

        p

    Reconstructing volVectorFields

        U

    Reconstructing surfaceScalarFields

        phi

Reconstructing point fields

No point fields

No lagrangian fields

No FA fields

Time = 89

Reconstructing FV fields

    Reconstructing volScalarFields

        p

    Reconstructing volVectorFields

        U

    Reconstructing surfaceScalarFields

        phi

Reconstructing point fields

No point fields

No lagrangian fields

No FA fields

Time = 90

Reconstructing FV fields

    Reconstructing volScalarFields

        p

    Reconstructing volVectorFields

        U

    Reconstructing surfaceScalarFields

        phi

Reconstructing point fields

No point fields

No lagrangian fields

No FA fields

Time = 91

Reconstructing FV fields

    Reconstructing volScalarFields

        p

    Reconstructing volVectorFields

        U

    Reconstructing surfaceScalarFields

        phi

Reconstructing point fields

No point fields

No lagrangian fields

No FA fields

Time = 92

Reconstructing FV fields

    Reconstructing volScalarFields

        p

    Reconstructing volVectorFields

        U

    Reconstructing surfaceScalarFields

        phi

Reconstructing point fields

No point fields

No lagrangian fields

No FA fields

Time = 93

Reconstructing FV fields

    Reconstructing volScalarFields

        p

    Reconstructing volVectorFields

        U

    Reconstructing surfaceScalarFields

        phi

Reconstructing point fields

No point fields

No lagrangian fields

No FA fields

Time = 94

Reconstructing FV fields

    Reconstructing volScalarFields

        p

    Reconstructing volVectorFields

        U

    Reconstructing surfaceScalarFields

        phi

Reconstructing point fields

No point fields

No lagrangian fields

No FA fields

Time = 95

Reconstructing FV fields

    Reconstructing volScalarFields

        p

    Reconstructing volVectorFields

        U

    Reconstructing surfaceScalarFields

        phi

Reconstructing point fields

No point fields

No lagrangian fields

No FA fields

Time = 96

Reconstructing FV fields

    Reconstructing volScalarFields

        p

    Reconstructing volVectorFields

        U

    Reconstructing surfaceScalarFields

        phi

Reconstructing point fields

No point fields

No lagrangian fields

No FA fields

Time = 97

Reconstructing FV fields

    Reconstructing volScalarFields

        p

    Reconstructing volVectorFields

        U

    Reconstructing surfaceScalarFields

        phi

Reconstructing point fields

No point fields

No lagrangian fields

No FA fields

Time = 98

Reconstructing FV fields

    Reconstructing volScalarFields

        p

    Reconstructing volVectorFields

        U

    Reconstructing surfaceScalarFields

        phi

Reconstructing point fields

No point fields

No lagrangian fields

No FA fields

Time = 99

Reconstructing FV fields

    Reconstructing volScalarFields

        p

    Reconstructing volVectorFields

        U

    Reconstructing surfaceScalarFields

        phi

Reconstructing point fields

No point fields

No lagrangian fields

No FA fields

Time = 100

Reconstructing FV fields

    Reconstructing volScalarFields

        p

    Reconstructing volVectorFields

        U

    Reconstructing surfaceScalarFields

        phi

Reconstructing point fields

No point fields

No lagrangian fields

No FA fields

Time = 101

Reconstructing FV fields

    Reconstructing volScalarFields

        p

    Reconstructing volVectorFields

        U

    Reconstructing surfaceScalarFields

        phi

Reconstructing point fields

No point fields

No lagrangian fields

No FA fields

Time = 102

Reconstructing FV fields

    Reconstructing volScalarFields

        p

    Reconstructing volVectorFields

        U

    Reconstructing surfaceScalarFields

        phi

Reconstructing point fields

No point fields

No lagrangian fields

No FA fields


End

