/*---------------------------------------------------------------------------*\
| =========                 |                                                 |
| \\      /  F ield         | OpenFOAM: The Open Source CFD Toolbox           |
|  \\    /   O peration     | Version:  v1912                                 |
|   \\  /    A nd           | Website:  www.openfoam.com                      |
|    \\/     M anipulation  |                                                 |
\*---------------------------------------------------------------------------*/
Build  : _f3950763fe-20191219 OPENFOAM=1912
Arch   : "LSB;label=32;scalar=64"
Exec   : simpleFoam
Date   : Nov 13 2020
Time   : 20:14:23
Host   : cnode20
PID    : 6249
I/O    : uncollated
Case   : /home/mech432/scr0/solved/finalReport/wingMotion/wingMotion2D_simpleFoam
nProcs : 1
trapFpe: Floating point exception trapping enabled (FOAM_SIGFPE).
fileModificationChecking : Monitoring run-time modified files using timeStampMaster (fileModificationSkew 10)
allowSystemOperations : Allowing user-supplied system call operations

// * * * * * * * * * * * * * * * * * * * * * * * * * * * * * * * * * * * * * //
Create time

Create mesh for time = 0


SIMPLE: no convergence criteria found. Calculations will run for 3000 steps.

Reading field p

Reading field U

Reading/calculating face flux field phi

Selecting incompressible transport model Newtonian
Selecting turbulence model type RAS
Selecting RAS turbulence model kOmegaSST
Selecting patchDistMethod meshWave
RAS
{
    RASModel        kOmegaSST;
    turbulence      on;
    printCoeffs     on;
    alphaK1         0.85;
    alphaK2         1;
    alphaOmega1     0.5;
    alphaOmega2     0.856;
    gamma1          0.555556;
    gamma2          0.44;
    beta1           0.075;
    beta2           0.0828;
    betaStar        0.09;
    a1              0.31;
    b1              1;
    c1              10;
    F3              false;
    decayControl    false;
    kInf            0;
    omegaInf        0;
}

No MRF models present

No finite volume options present

Starting time loop

forces forces:
    rho: rhoInf
    Freestream density (rhoInf) set to 1
    Not including porosity effects
Time = 1

smoothSolver:  Solving for Ux, Initial residual = 1, Final residual = 0.0682724, No Iterations 3
smoothSolver:  Solving for Uy, Initial residual = 1, Final residual = 0.058254, No Iterations 5
GAMG:  Solving for p, Initial residual = 1, Final residual = 0.0983685, No Iterations 6
time step continuity errors : sum local = 0.118283, global = -0.0191512, cumulative = -0.0191512
smoothSolver:  Solving for omega, Initial residual = 0.0692119, Final residual = 0.00371963, No Iterations 4
smoothSolver:  Solving for k, Initial residual = 1, Final residual = 0.0596329, No Iterations 4
ExecutionTime = 0.28 s  ClockTime = 0 s

Time = 2

smoothSolver:  Solving for Ux, Initial residual = 0.72825, Final residual = 0.0501908, No Iterations 4
smoothSolver:  Solving for Uy, Initial residual = 0.705463, Final residual = 0.0520973, No Iterations 4
GAMG:  Solving for p, Initial residual = 0.832074, Final residual = 0.0404676, No Iterations 3
time step continuity errors : sum local = 1.37153, global = -0.0134282, cumulative = -0.0325794
smoothSolver:  Solving for omega, Initial residual = 0.0201102, Final residual = 0.00103333, No Iterations 4
smoothSolver:  Solving for k, Initial residual = 0.583191, Final residual = 0.0309636, No Iterations 4
ExecutionTime = 0.34 s  ClockTime = 0 s

Time = 3

smoothSolver:  Solving for Ux, Initial residual = 0.12114, Final residual = 0.00827997, No Iterations 4
smoothSolver:  Solving for Uy, Initial residual = 0.0890875, Final residual = 0.00665594, No Iterations 4
GAMG:  Solving for p, Initial residual = 0.875856, Final residual = 0.0716857, No Iterations 3
time step continuity errors : sum local = 2.03623, global = 0.0186716, cumulative = -0.0139078
smoothSolver:  Solving for omega, Initial residual = 0.0218418, Final residual = 0.00111425, No Iterations 4
smoothSolver:  Solving for k, Initial residual = 0.0741554, Final residual = 0.00403619, No Iterations 4
ExecutionTime = 0.38 s  ClockTime = 0 s

Time = 4

smoothSolver:  Solving for Ux, Initial residual = 0.0807366, Final residual = 0.00525349, No Iterations 4
smoothSolver:  Solving for Uy, Initial residual = 0.069457, Final residual = 0.00502943, No Iterations 4
GAMG:  Solving for p, Initial residual = 0.548219, Final residual = 0.0522113, No Iterations 3
time step continuity errors : sum local = 1.28018, global = 0.0632532, cumulative = 0.0493454
smoothSolver:  Solving for omega, Initial residual = 0.0167332, Final residual = 0.000983577, No Iterations 3
smoothSolver:  Solving for k, Initial residual = 0.049951, Final residual = 0.00438654, No Iterations 3
ExecutionTime = 0.42 s  ClockTime = 0 s

Time = 5

smoothSolver:  Solving for Ux, Initial residual = 0.194179, Final residual = 0.0144887, No Iterations 4
smoothSolver:  Solving for Uy, Initial residual = 0.210255, Final residual = 0.0156756, No Iterations 4
GAMG:  Solving for p, Initial residual = 0.823287, Final residual = 0.0471227, No Iterations 3
time step continuity errors : sum local = 1.11815, global = 0.104747, cumulative = 0.154092
smoothSolver:  Solving for omega, Initial residual = 0.0148031, Final residual = 0.000767601, No Iterations 3
smoothSolver:  Solving for k, Initial residual = 0.0457244, Final residual = 0.00346158, No Iterations 3
ExecutionTime = 0.46 s  ClockTime = 0 s

Time = 6

smoothSolver:  Solving for Ux, Initial residual = 0.379303, Final residual = 0.0253492, No Iterations 4
smoothSolver:  Solving for Uy, Initial residual = 0.270823, Final residual = 0.0196621, No Iterations 4
GAMG:  Solving for p, Initial residual = 0.747263, Final residual = 0.0500582, No Iterations 3
time step continuity errors : sum local = 1.31513, global = 0.102596, cumulative = 0.256687
smoothSolver:  Solving for omega, Initial residual = 0.0140218, Final residual = 0.000766713, No Iterations 3
smoothSolver:  Solving for k, Initial residual = 0.043736, Final residual = 0.00304407, No Iterations 3
ExecutionTime = 0.5 s  ClockTime = 0 s

Time = 7

smoothSolver:  Solving for Ux, Initial residual = 0.342039, Final residual = 0.0196779, No Iterations 4
smoothSolver:  Solving for Uy, Initial residual = 0.20025, Final residual = 0.0133556, No Iterations 4
GAMG:  Solving for p, Initial residual = 0.524752, Final residual = 0.0456942, No Iterations 3
time step continuity errors : sum local = 1.11595, global = 0.0427921, cumulative = 0.29948
smoothSolver:  Solving for omega, Initial residual = 0.0133394, Final residual = 0.000562325, No Iterations 3
smoothSolver:  Solving for k, Initial residual = 0.0333785, Final residual = 0.00221115, No Iterations 3
ExecutionTime = 0.54 s  ClockTime = 0 s

Time = 8

smoothSolver:  Solving for Ux, Initial residual = 0.281924, Final residual = 0.0171643, No Iterations 4
smoothSolver:  Solving for Uy, Initial residual = 0.372581, Final residual = 0.0265804, No Iterations 4
GAMG:  Solving for p, Initial residual = 0.602195, Final residual = 0.0417055, No Iterations 3
time step continuity errors : sum local = 0.983177, global = -0.0360727, cumulative = 0.263407
smoothSolver:  Solving for omega, Initial residual = 0.0106538, Final residual = 0.000567972, No Iterations 3
smoothSolver:  Solving for k, Initial residual = 0.0298531, Final residual = 0.00217419, No Iterations 3
ExecutionTime = 0.58 s  ClockTime = 0 s

Time = 9

smoothSolver:  Solving for Ux, Initial residual = 0.205531, Final residual = 0.0135239, No Iterations 4
smoothSolver:  Solving for Uy, Initial residual = 0.102075, Final residual = 0.00725378, No Iterations 4
GAMG:  Solving for p, Initial residual = 0.689839, Final residual = 0.0446051, No Iterations 3
time step continuity errors : sum local = 0.976492, global = -0.124491, cumulative = 0.138916
smoothSolver:  Solving for omega, Initial residual = 0.0100627, Final residual = 0.00054586, No Iterations 3
smoothSolver:  Solving for k, Initial residual = 0.0324654, Final residual = 0.00238231, No Iterations 3
ExecutionTime = 0.62 s  ClockTime = 0 s

Time = 10

smoothSolver:  Solving for Ux, Initial residual = 0.168966, Final residual = 0.0107681, No Iterations 4
smoothSolver:  Solving for Uy, Initial residual = 0.0901194, Final residual = 0.0061476, No Iterations 4
GAMG:  Solving for p, Initial residual = 0.736872, Final residual = 0.0572136, No Iterations 3
time step continuity errors : sum local = 0.938505, global = -0.139257, cumulative = -0.000340885
smoothSolver:  Solving for omega, Initial residual = 0.00975669, Final residual = 0.000537756, No Iterations 3
smoothSolver:  Solving for k, Initial residual = 0.029742, Final residual = 0.0021024, No Iterations 3
ExecutionTime = 0.66 s  ClockTime = 0 s

Time = 11

smoothSolver:  Solving for Ux, Initial residual = 0.147418, Final residual = 0.00910658, No Iterations 4
smoothSolver:  Solving for Uy, Initial residual = 0.135987, Final residual = 0.00972191, No Iterations 4
GAMG:  Solving for p, Initial residual = 0.7152, Final residual = 0.0578313, No Iterations 3
time step continuity errors : sum local = 0.901875, global = -0.11239, cumulative = -0.112731
smoothSolver:  Solving for omega, Initial residual = 0.00876609, Final residual = 0.000520976, No Iterations 3
smoothSolver:  Solving for k, Initial residual = 0.0251788, Final residual = 0.00165071, No Iterations 3
ExecutionTime = 0.7 s  ClockTime = 0 s

Time = 12

smoothSolver:  Solving for Ux, Initial residual = 0.169984, Final residual = 0.0104763, No Iterations 4
smoothSolver:  Solving for Uy, Initial residual = 0.178939, Final residual = 0.0124761, No Iterations 4
GAMG:  Solving for p, Initial residual = 0.702571, Final residual = 0.0527453, No Iterations 3
time step continuity errors : sum local = 0.809922, global = -0.0188695, cumulative = -0.1316
smoothSolver:  Solving for omega, Initial residual = 0.00849287, Final residual = 0.000519895, No Iterations 3
smoothSolver:  Solving for k, Initial residual = 0.0222515, Final residual = 0.00148862, No Iterations 3
ExecutionTime = 0.74 s  ClockTime = 1 s

Time = 13

smoothSolver:  Solving for Ux, Initial residual = 0.197024, Final residual = 0.0122356, No Iterations 4
smoothSolver:  Solving for Uy, Initial residual = 0.212363, Final residual = 0.0140209, No Iterations 4
GAMG:  Solving for p, Initial residual = 0.67408, Final residual = 0.0458022, No Iterations 3
time step continuity errors : sum local = 0.637061, global = 0.0782176, cumulative = -0.0533826
smoothSolver:  Solving for omega, Initial residual = 0.00594998, Final residual = 0.000416685, No Iterations 3
smoothSolver:  Solving for k, Initial residual = 0.017411, Final residual = 0.00136746, No Iterations 3
ExecutionTime = 0.78 s  ClockTime = 1 s

Time = 14

smoothSolver:  Solving for Ux, Initial residual = 0.172183, Final residual = 0.0105237, No Iterations 4
smoothSolver:  Solving for Uy, Initial residual = 0.153833, Final residual = 0.0104071, No Iterations 4
GAMG:  Solving for p, Initial residual = 0.675098, Final residual = 0.0507957, No Iterations 3
time step continuity errors : sum local = 0.656144, global = 0.127429, cumulative = 0.0740469
smoothSolver:  Solving for omega, Initial residual = 0.00552016, Final residual = 0.000391527, No Iterations 3
smoothSolver:  Solving for k, Initial residual = 0.0173712, Final residual = 0.00142048, No Iterations 3
ExecutionTime = 0.82 s  ClockTime = 1 s

Time = 15

smoothSolver:  Solving for Ux, Initial residual = 0.128105, Final residual = 0.00791079, No Iterations 4
smoothSolver:  Solving for Uy, Initial residual = 0.0868915, Final residual = 0.0058638, No Iterations 4
GAMG:  Solving for p, Initial residual = 0.726426, Final residual = 0.059519, No Iterations 3
time step continuity errors : sum local = 0.645885, global = 0.119352, cumulative = 0.193399
smoothSolver:  Solving for omega, Initial residual = 0.00472041, Final residual = 0.000373158, No Iterations 3
smoothSolver:  Solving for k, Initial residual = 0.0166163, Final residual = 0.00147202, No Iterations 3
ExecutionTime = 0.86 s  ClockTime = 1 s

Time = 16

smoothSolver:  Solving for Ux, Initial residual = 0.125862, Final residual = 0.00797958, No Iterations 4
smoothSolver:  Solving for Uy, Initial residual = 0.0778083, Final residual = 0.00530688, No Iterations 4
GAMG:  Solving for p, Initial residual = 0.667304, Final residual = 0.0500051, No Iterations 3
time step continuity errors : sum local = 0.518175, global = 0.0526194, cumulative = 0.246018
smoothSolver:  Solving for omega, Initial residual = 0.00417856, Final residual = 0.000364285, No Iterations 3
smoothSolver:  Solving for k, Initial residual = 0.0157075, Final residual = 0.00152529, No Iterations 3
ExecutionTime = 0.9 s  ClockTime = 1 s

Time = 17

smoothSolver:  Solving for Ux, Initial residual = 0.128265, Final residual = 0.00798367, No Iterations 4
smoothSolver:  Solving for Uy, Initial residual = 0.0847278, Final residual = 0.0056862, No Iterations 4
GAMG:  Solving for p, Initial residual = 0.551935, Final residual = 0.0351085, No Iterations 3
time step continuity errors : sum local = 0.428984, global = -0.0263174, cumulative = 0.219701
smoothSolver:  Solving for omega, Initial residual = 0.0035462, Final residual = 0.000340046, No Iterations 3
smoothSolver:  Solving for k, Initial residual = 0.0143488, Final residual = 0.00141627, No Iterations 3
ExecutionTime = 0.94 s  ClockTime = 1 s

Time = 18

smoothSolver:  Solving for Ux, Initial residual = 0.114829, Final residual = 0.00706703, No Iterations 4
smoothSolver:  Solving for Uy, Initial residual = 0.0798693, Final residual = 0.00534501, No Iterations 4
GAMG:  Solving for p, Initial residual = 0.475912, Final residual = 0.0367073, No Iterations 3
time step continuity errors : sum local = 0.472349, global = -0.0861541, cumulative = 0.133546
smoothSolver:  Solving for omega, Initial residual = 0.00341216, Final residual = 0.000329212, No Iterations 3
smoothSolver:  Solving for k, Initial residual = 0.0139275, Final residual = 0.0013579, No Iterations 3
ExecutionTime = 0.98 s  ClockTime = 1 s

Time = 19

smoothSolver:  Solving for Ux, Initial residual = 0.0926429, Final residual = 0.00582852, No Iterations 4
smoothSolver:  Solving for Uy, Initial residual = 0.0843998, Final residual = 0.00580556, No Iterations 4
GAMG:  Solving for p, Initial residual = 0.472435, Final residual = 0.0389106, No Iterations 3
time step continuity errors : sum local = 0.44172, global = -0.0870333, cumulative = 0.0465131
smoothSolver:  Solving for omega, Initial residual = 0.00333902, Final residual = 0.000326543, No Iterations 3
smoothSolver:  Solving for k, Initial residual = 0.0136963, Final residual = 0.000678642, No Iterations 4
ExecutionTime = 1.03 s  ClockTime = 1 s

Time = 20

smoothSolver:  Solving for Ux, Initial residual = 0.0836619, Final residual = 0.00521938, No Iterations 4
smoothSolver:  Solving for Uy, Initial residual = 0.0750135, Final residual = 0.0051234, No Iterations 4
GAMG:  Solving for p, Initial residual = 0.601527, Final residual = 0.0420902, No Iterations 3
time step continuity errors : sum local = 0.351112, global = -0.0543359, cumulative = -0.00782281
smoothSolver:  Solving for omega, Initial residual = 0.00308717, Final residual = 0.000146684, No Iterations 4
smoothSolver:  Solving for k, Initial residual = 0.0133063, Final residual = 0.000700713, No Iterations 4
ExecutionTime = 1.07 s  ClockTime = 1 s

Time = 21

smoothSolver:  Solving for Ux, Initial residual = 0.0877875, Final residual = 0.00530279, No Iterations 4
smoothSolver:  Solving for Uy, Initial residual = 0.059154, Final residual = 0.00387334, No Iterations 4
GAMG:  Solving for p, Initial residual = 0.662972, Final residual = 0.0437657, No Iterations 3
time step continuity errors : sum local = 0.301022, global = -0.0103061, cumulative = -0.0181289
smoothSolver:  Solving for omega, Initial residual = 0.0028172, Final residual = 0.000142713, No Iterations 4
smoothSolver:  Solving for k, Initial residual = 0.0130244, Final residual = 0.000713265, No Iterations 4
ExecutionTime = 1.11 s  ClockTime = 1 s

Time = 22

smoothSolver:  Solving for Ux, Initial residual = 0.0808794, Final residual = 0.00490998, No Iterations 4
smoothSolver:  Solving for Uy, Initial residual = 0.0549601, Final residual = 0.00366082, No Iterations 4
GAMG:  Solving for p, Initial residual = 0.556098, Final residual = 0.0446082, No Iterations 3
time step continuity errors : sum local = 0.330904, global = 0.0342694, cumulative = 0.0161405
smoothSolver:  Solving for omega, Initial residual = 0.00280091, Final residual = 0.000149823, No Iterations 4
smoothSolver:  Solving for k, Initial residual = 0.0130484, Final residual = 0.000730908, No Iterations 4
ExecutionTime = 1.15 s  ClockTime = 1 s

Time = 23

smoothSolver:  Solving for Ux, Initial residual = 0.0641346, Final residual = 0.00398071, No Iterations 4
smoothSolver:  Solving for Uy, Initial residual = 0.0545687, Final residual = 0.00365582, No Iterations 4
GAMG:  Solving for p, Initial residual = 0.57519, Final residual = 0.0446271, No Iterations 3
time step continuity errors : sum local = 0.309911, global = 0.0420625, cumulative = 0.0582031
smoothSolver:  Solving for omega, Initial residual = 0.0026376, Final residual = 0.000151857, No Iterations 4
smoothSolver:  Solving for k, Initial residual = 0.0126432, Final residual = 0.000723688, No Iterations 4
ExecutionTime = 1.19 s  ClockTime = 1 s

Time = 24

smoothSolver:  Solving for Ux, Initial residual = 0.0631379, Final residual = 0.00394778, No Iterations 4
smoothSolver:  Solving for Uy, Initial residual = 0.0493005, Final residual = 0.00324117, No Iterations 4
GAMG:  Solving for p, Initial residual = 0.682755, Final residual = 0.0459071, No Iterations 3
time step continuity errors : sum local = 0.244095, global = 0.0324399, cumulative = 0.090643
smoothSolver:  Solving for omega, Initial residual = 0.00245849, Final residual = 0.000147793, No Iterations 4
smoothSolver:  Solving for k, Initial residual = 0.012139, Final residual = 0.000704288, No Iterations 4
ExecutionTime = 1.23 s  ClockTime = 1 s

Time = 25

smoothSolver:  Solving for Ux, Initial residual = 0.0675172, Final residual = 0.00417877, No Iterations 4
smoothSolver:  Solving for Uy, Initial residual = 0.0461437, Final residual = 0.00304973, No Iterations 4
GAMG:  Solving for p, Initial residual = 0.593403, Final residual = 0.0413839, No Iterations 3
time step continuity errors : sum local = 0.227386, global = 0.0159798, cumulative = 0.106623
smoothSolver:  Solving for omega, Initial residual = 0.00230289, Final residual = 0.000142194, No Iterations 4
smoothSolver:  Solving for k, Initial residual = 0.011813, Final residual = 0.000698688, No Iterations 4
ExecutionTime = 1.27 s  ClockTime = 1 s

Time = 26

smoothSolver:  Solving for Ux, Initial residual = 0.0598411, Final residual = 0.00369487, No Iterations 4
smoothSolver:  Solving for Uy, Initial residual = 0.0423726, Final residual = 0.00279892, No Iterations 4
GAMG:  Solving for p, Initial residual = 0.512203, Final residual = 0.0394334, No Iterations 3
time step continuity errors : sum local = 0.240763, global = -0.000551113, cumulative = 0.106072
smoothSolver:  Solving for omega, Initial residual = 0.0021676, Final residual = 0.000137807, No Iterations 4
smoothSolver:  Solving for k, Initial residual = 0.01171, Final residual = 0.000706582, No Iterations 4
ExecutionTime = 1.31 s  ClockTime = 1 s

Time = 27

smoothSolver:  Solving for Ux, Initial residual = 0.0475522, Final residual = 0.0029828, No Iterations 4
smoothSolver:  Solving for Uy, Initial residual = 0.039464, Final residual = 0.00258134, No Iterations 4
GAMG:  Solving for p, Initial residual = 0.476028, Final residual = 0.0354501, No Iterations 3
time step continuity errors : sum local = 0.216595, global = -0.00609277, cumulative = 0.0999789
smoothSolver:  Solving for omega, Initial residual = 0.0020976, Final residual = 0.000136007, No Iterations 4
smoothSolver:  Solving for k, Initial residual = 0.0115888, Final residual = 0.000707976, No Iterations 4
ExecutionTime = 1.36 s  ClockTime = 1 s

Time = 28

smoothSolver:  Solving for Ux, Initial residual = 0.0450536, Final residual = 0.00279033, No Iterations 4
smoothSolver:  Solving for Uy, Initial residual = 0.0380707, Final residual = 0.00251118, No Iterations 4
GAMG:  Solving for p, Initial residual = 0.464772, Final residual = 0.0326312, No Iterations 3
time step continuity errors : sum local = 0.184757, global = -0.00687793, cumulative = 0.0931009
smoothSolver:  Solving for omega, Initial residual = 0.00203241, Final residual = 0.000133116, No Iterations 4
smoothSolver:  Solving for k, Initial residual = 0.0113247, Final residual = 0.000696064, No Iterations 4
ExecutionTime = 1.4 s  ClockTime = 1 s

Time = 29

smoothSolver:  Solving for Ux, Initial residual = 0.0438373, Final residual = 0.00269374, No Iterations 4
smoothSolver:  Solving for Uy, Initial residual = 0.0357715, Final residual = 0.00235222, No Iterations 4
GAMG:  Solving for p, Initial residual = 0.484124, Final residual = 0.0369786, No Iterations 3
time step continuity errors : sum local = 0.189185, global = -0.00556037, cumulative = 0.0875406
smoothSolver:  Solving for omega, Initial residual = 0.00196628, Final residual = 0.000128786, No Iterations 4
smoothSolver:  Solving for k, Initial residual = 0.0110392, Final residual = 0.000673887, No Iterations 4
ExecutionTime = 1.44 s  ClockTime = 1 s

Time = 30

smoothSolver:  Solving for Ux, Initial residual = 0.0407267, Final residual = 0.00244972, No Iterations 4
smoothSolver:  Solving for Uy, Initial residual = 0.0322493, Final residual = 0.00209075, No Iterations 4
GAMG:  Solving for p, Initial residual = 0.501875, Final residual = 0.0385043, No Iterations 3
time step continuity errors : sum local = 0.178556, global = -0.00759993, cumulative = 0.0799406
smoothSolver:  Solving for omega, Initial residual = 0.00190364, Final residual = 0.000124211, No Iterations 4
smoothSolver:  Solving for k, Initial residual = 0.0108223, Final residual = 0.000666987, No Iterations 4
ExecutionTime = 1.48 s  ClockTime = 1 s

Time = 31

smoothSolver:  Solving for Ux, Initial residual = 0.041502, Final residual = 0.00254065, No Iterations 4
smoothSolver:  Solving for Uy, Initial residual = 0.0303483, Final residual = 0.00197742, No Iterations 4
GAMG:  Solving for p, Initial residual = 0.514308, Final residual = 0.0365155, No Iterations 3
time step continuity errors : sum local = 0.15101, global = -0.0127127, cumulative = 0.0672279
smoothSolver:  Solving for omega, Initial residual = 0.00183368, Final residual = 0.000119358, No Iterations 4
smoothSolver:  Solving for k, Initial residual = 0.0106349, Final residual = 0.000663204, No Iterations 4
ExecutionTime = 1.52 s  ClockTime = 1 s

Time = 32

smoothSolver:  Solving for Ux, Initial residual = 0.0415308, Final residual = 0.00262453, No Iterations 4
smoothSolver:  Solving for Uy, Initial residual = 0.0278665, Final residual = 0.00182203, No Iterations 4
GAMG:  Solving for p, Initial residual = 0.553233, Final residual = 0.0407975, No Iterations 3
time step continuity errors : sum local = 0.144179, global = -0.0139228, cumulative = 0.0533051
smoothSolver:  Solving for omega, Initial residual = 0.00176584, Final residual = 0.000114676, No Iterations 4
smoothSolver:  Solving for k, Initial residual = 0.0103972, Final residual = 0.000651543, No Iterations 4
ExecutionTime = 1.56 s  ClockTime = 1 s

Time = 33

smoothSolver:  Solving for Ux, Initial residual = 0.0366299, Final residual = 0.00232023, No Iterations 4
smoothSolver:  Solving for Uy, Initial residual = 0.0257086, Final residual = 0.00166096, No Iterations 4
GAMG:  Solving for p, Initial residual = 0.594083, Final residual = 0.0495158, No Iterations 3
time step continuity errors : sum local = 0.152636, global = -0.0141284, cumulative = 0.0391767
smoothSolver:  Solving for omega, Initial residual = 0.00171224, Final residual = 0.000111112, No Iterations 4
smoothSolver:  Solving for k, Initial residual = 0.0102016, Final residual = 0.000640717, No Iterations 4
ExecutionTime = 1.6 s  ClockTime = 1 s

Time = 34

smoothSolver:  Solving for Ux, Initial residual = 0.0319923, Final residual = 0.00196069, No Iterations 4
smoothSolver:  Solving for Uy, Initial residual = 0.0250463, Final residual = 0.00162259, No Iterations 4
GAMG:  Solving for p, Initial residual = 0.607622, Final residual = 0.049096, No Iterations 3
time step continuity errors : sum local = 0.138671, global = -0.00682108, cumulative = 0.0323556
smoothSolver:  Solving for omega, Initial residual = 0.00166577, Final residual = 0.000108164, No Iterations 4
smoothSolver:  Solving for k, Initial residual = 0.0100008, Final residual = 0.000629374, No Iterations 4
ExecutionTime = 1.64 s  ClockTime = 1 s

Time = 35

smoothSolver:  Solving for Ux, Initial residual = 0.0301625, Final residual = 0.0018006, No Iterations 4
smoothSolver:  Solving for Uy, Initial residual = 0.0246511, Final residual = 0.00161643, No Iterations 4
GAMG:  Solving for p, Initial residual = 0.582468, Final residual = 0.0433459, No Iterations 3
time step continuity errors : sum local = 0.117108, global = 0.00638063, cumulative = 0.0387363
smoothSolver:  Solving for omega, Initial residual = 0.00162029, Final residual = 0.000105422, No Iterations 4
smoothSolver:  Solving for k, Initial residual = 0.00986487, Final residual = 0.000618824, No Iterations 4
ExecutionTime = 1.68 s  ClockTime = 1 s

Time = 36

smoothSolver:  Solving for Ux, Initial residual = 0.0289367, Final residual = 0.00175152, No Iterations 4
smoothSolver:  Solving for Uy, Initial residual = 0.023165, Final residual = 0.00151617, No Iterations 4
GAMG:  Solving for p, Initial residual = 0.509812, Final residual = 0.0398731, No Iterations 3
time step continuity errors : sum local = 0.112493, global = 0.0132374, cumulative = 0.0519737
smoothSolver:  Solving for omega, Initial residual = 0.001574, Final residual = 0.000102512, No Iterations 4
smoothSolver:  Solving for k, Initial residual = 0.00976539, Final residual = 0.000610771, No Iterations 4
ExecutionTime = 1.72 s  ClockTime = 2 s

Time = 37

smoothSolver:  Solving for Ux, Initial residual = 0.0272947, Final residual = 0.00167538, No Iterations 4
smoothSolver:  Solving for Uy, Initial residual = 0.0213919, Final residual = 0.00139712, No Iterations 4
GAMG:  Solving for p, Initial residual = 0.425683, Final residual = 0.0358736, No Iterations 3
time step continuity errors : sum local = 0.113675, global = 0.0190212, cumulative = 0.0709949
smoothSolver:  Solving for omega, Initial residual = 0.00152957, Final residual = 9.92696e-05, No Iterations 4
smoothSolver:  Solving for k, Initial residual = 0.00965541, Final residual = 0.000604727, No Iterations 4
ExecutionTime = 1.76 s  ClockTime = 2 s

Time = 38

smoothSolver:  Solving for Ux, Initial residual = 0.0268558, Final residual = 0.00164927, No Iterations 4
smoothSolver:  Solving for Uy, Initial residual = 0.0201714, Final residual = 0.00133233, No Iterations 4
GAMG:  Solving for p, Initial residual = 0.373123, Final residual = 0.0309744, No Iterations 3
time step continuity errors : sum local = 0.10492, global = 0.0170331, cumulative = 0.088028
smoothSolver:  Solving for omega, Initial residual = 0.00148706, Final residual = 9.62974e-05, No Iterations 4
smoothSolver:  Solving for k, Initial residual = 0.0095185, Final residual = 0.000598222, No Iterations 4
ExecutionTime = 1.8 s  ClockTime = 2 s

Time = 39

smoothSolver:  Solving for Ux, Initial residual = 0.0268318, Final residual = 0.00165147, No Iterations 4
smoothSolver:  Solving for Uy, Initial residual = 0.0190111, Final residual = 0.00125629, No Iterations 4
GAMG:  Solving for p, Initial residual = 0.331793, Final residual = 0.0262671, No Iterations 3
time step continuity errors : sum local = 0.091154, global = 0.00593382, cumulative = 0.0939618
smoothSolver:  Solving for omega, Initial residual = 0.00144431, Final residual = 9.36491e-05, No Iterations 4
smoothSolver:  Solving for k, Initial residual = 0.00935051, Final residual = 0.000587578, No Iterations 4
ExecutionTime = 1.85 s  ClockTime = 2 s

Time = 40

smoothSolver:  Solving for Ux, Initial residual = 0.0258239, Final residual = 0.00160693, No Iterations 4
smoothSolver:  Solving for Uy, Initial residual = 0.0177079, Final residual = 0.00115106, No Iterations 4
GAMG:  Solving for p, Initial residual = 0.312078, Final residual = 0.0250933, No Iterations 3
time step continuity errors : sum local = 0.0850199, global = -0.00540534, cumulative = 0.0885565
smoothSolver:  Solving for omega, Initial residual = 0.0014025, Final residual = 9.10842e-05, No Iterations 4
smoothSolver:  Solving for k, Initial residual = 0.00920781, Final residual = 0.000577401, No Iterations 4
ExecutionTime = 1.89 s  ClockTime = 2 s

Time = 41

smoothSolver:  Solving for Ux, Initial residual = 0.0231378, Final residual = 0.00144637, No Iterations 4
smoothSolver:  Solving for Uy, Initial residual = 0.0167542, Final residual = 0.00108017, No Iterations 4
GAMG:  Solving for p, Initial residual = 0.317961, Final residual = 0.0265672, No Iterations 3
time step continuity errors : sum local = 0.0829027, global = -0.0146703, cumulative = 0.0738861
smoothSolver:  Solving for omega, Initial residual = 0.00136337, Final residual = 8.88976e-05, No Iterations 4
smoothSolver:  Solving for k, Initial residual = 0.00908376, Final residual = 0.000566908, No Iterations 4
ExecutionTime = 1.93 s  ClockTime = 2 s

Time = 42

smoothSolver:  Solving for Ux, Initial residual = 0.0209932, Final residual = 0.00130904, No Iterations 4
smoothSolver:  Solving for Uy, Initial residual = 0.0167573, Final residual = 0.00111431, No Iterations 4
GAMG:  Solving for p, Initial residual = 0.339967, Final residual = 0.027848, No Iterations 3
time step continuity errors : sum local = 0.0762793, global = -0.0170963, cumulative = 0.0567899
smoothSolver:  Solving for omega, Initial residual = 0.00132619, Final residual = 8.69512e-05, No Iterations 4
smoothSolver:  Solving for k, Initial residual = 0.0089854, Final residual = 0.000557455, No Iterations 4
ExecutionTime = 1.97 s  ClockTime = 2 s

Time = 43

smoothSolver:  Solving for Ux, Initial residual = 0.0200334, Final residual = 0.00122065, No Iterations 4
smoothSolver:  Solving for Uy, Initial residual = 0.0165523, Final residual = 0.00111129, No Iterations 4
GAMG:  Solving for p, Initial residual = 0.3693, Final residual = 0.030135, No Iterations 3
time step continuity errors : sum local = 0.0695069, global = -0.0120677, cumulative = 0.0447222
smoothSolver:  Solving for omega, Initial residual = 0.00129321, Final residual = 8.53269e-05, No Iterations 4
smoothSolver:  Solving for k, Initial residual = 0.00893867, Final residual = 0.000553326, No Iterations 4
ExecutionTime = 2.01 s  ClockTime = 2 s

Time = 44

smoothSolver:  Solving for Ux, Initial residual = 0.0197765, Final residual = 0.0012026, No Iterations 4
smoothSolver:  Solving for Uy, Initial residual = 0.0152741, Final residual = 0.00101179, No Iterations 4
GAMG:  Solving for p, Initial residual = 0.396098, Final residual = 0.0334002, No Iterations 3
time step continuity errors : sum local = 0.0661035, global = -0.00410393, cumulative = 0.0406183
smoothSolver:  Solving for omega, Initial residual = 0.00125935, Final residual = 8.36354e-05, No Iterations 4
smoothSolver:  Solving for k, Initial residual = 0.00887605, Final residual = 0.000547949, No Iterations 4
ExecutionTime = 2.05 s  ClockTime = 2 s

Time = 45

smoothSolver:  Solving for Ux, Initial residual = 0.0193572, Final residual = 0.00119671, No Iterations 4
smoothSolver:  Solving for Uy, Initial residual = 0.0139978, Final residual = 0.000911201, No Iterations 4
GAMG:  Solving for p, Initial residual = 0.384463, Final residual = 0.0324537, No Iterations 3
time step continuity errors : sum local = 0.061809, global = 0.00692998, cumulative = 0.0475482
smoothSolver:  Solving for omega, Initial residual = 0.00122586, Final residual = 8.19061e-05, No Iterations 4
smoothSolver:  Solving for k, Initial residual = 0.00880352, Final residual = 0.000543352, No Iterations 4
ExecutionTime = 2.09 s  ClockTime = 2 s

Time = 46

smoothSolver:  Solving for Ux, Initial residual = 0.0187163, Final residual = 0.0011725, No Iterations 4
smoothSolver:  Solving for Uy, Initial residual = 0.0132887, Final residual = 0.000870628, No Iterations 4
GAMG:  Solving for p, Initial residual = 0.350209, Final residual = 0.0282276, No Iterations 3
time step continuity errors : sum local = 0.0553962, global = 0.0124243, cumulative = 0.0599725
smoothSolver:  Solving for omega, Initial residual = 0.00119159, Final residual = 7.99429e-05, No Iterations 4
smoothSolver:  Solving for k, Initial residual = 0.0087057, Final residual = 0.000535008, No Iterations 4
ExecutionTime = 2.13 s  ClockTime = 2 s

Time = 47

smoothSolver:  Solving for Ux, Initial residual = 0.0179049, Final residual = 0.00113439, No Iterations 4
smoothSolver:  Solving for Uy, Initial residual = 0.0131241, Final residual = 0.00086002, No Iterations 4
GAMG:  Solving for p, Initial residual = 0.293237, Final residual = 0.0236622, No Iterations 3
time step continuity errors : sum local = 0.0514437, global = 0.0112526, cumulative = 0.0712251
smoothSolver:  Solving for omega, Initial residual = 0.00115711, Final residual = 7.79264e-05, No Iterations 4
smoothSolver:  Solving for k, Initial residual = 0.00860029, Final residual = 0.000525968, No Iterations 4
ExecutionTime = 2.17 s  ClockTime = 2 s

Time = 48

smoothSolver:  Solving for Ux, Initial residual = 0.0168219, Final residual = 0.00106181, No Iterations 4
smoothSolver:  Solving for Uy, Initial residual = 0.0126833, Final residual = 0.000824354, No Iterations 4
GAMG:  Solving for p, Initial residual = 0.241694, Final residual = 0.0206724, No Iterations 3
time step continuity errors : sum local = 0.0503114, global = 0.0072967, cumulative = 0.0785218
smoothSolver:  Solving for omega, Initial residual = 0.00112559, Final residual = 7.62225e-05, No Iterations 4
smoothSolver:  Solving for k, Initial residual = 0.00850685, Final residual = 0.000517154, No Iterations 4
ExecutionTime = 2.21 s  ClockTime = 2 s

Time = 49

smoothSolver:  Solving for Ux, Initial residual = 0.0156449, Final residual = 0.000979483, No Iterations 4
smoothSolver:  Solving for Uy, Initial residual = 0.0122198, Final residual = 0.000792332, No Iterations 4
GAMG:  Solving for p, Initial residual = 0.216045, Final residual = 0.0187239, No Iterations 3
time step continuity errors : sum local = 0.0474595, global = -0.000859838, cumulative = 0.077662
smoothSolver:  Solving for omega, Initial residual = 0.00109538, Final residual = 7.4561e-05, No Iterations 4
smoothSolver:  Solving for k, Initial residual = 0.00840351, Final residual = 0.000507704, No Iterations 4
ExecutionTime = 2.25 s  ClockTime = 2 s

Time = 50

smoothSolver:  Solving for Ux, Initial residual = 0.0148434, Final residual = 0.000922517, No Iterations 4
smoothSolver:  Solving for Uy, Initial residual = 0.011856, Final residual = 0.000774859, No Iterations 4
GAMG:  Solving for p, Initial residual = 0.206673, Final residual = 0.0173414, No Iterations 3
time step continuity errors : sum local = 0.0433298, global = -0.00814255, cumulative = 0.0695194
smoothSolver:  Solving for omega, Initial residual = 0.00106606, Final residual = 7.27932e-05, No Iterations 4
smoothSolver:  Solving for k, Initial residual = 0.00827552, Final residual = 0.000495866, No Iterations 4
ExecutionTime = 2.3 s  ClockTime = 2 s

Time = 51

smoothSolver:  Solving for Ux, Initial residual = 0.0143572, Final residual = 0.000883008, No Iterations 4
smoothSolver:  Solving for Uy, Initial residual = 0.0116874, Final residual = 0.000768992, No Iterations 4
GAMG:  Solving for p, Initial residual = 0.203779, Final residual = 0.0172919, No Iterations 3
time step continuity errors : sum local = 0.0409333, global = -0.0094206, cumulative = 0.0600988
smoothSolver:  Solving for omega, Initial residual = 0.00103889, Final residual = 7.08941e-05, No Iterations 4
smoothSolver:  Solving for k, Initial residual = 0.00813205, Final residual = 0.000483451, No Iterations 4
ExecutionTime = 2.34 s  ClockTime = 2 s

Time = 52

smoothSolver:  Solving for Ux, Initial residual = 0.0139844, Final residual = 0.00086159, No Iterations 4
smoothSolver:  Solving for Uy, Initial residual = 0.0109786, Final residual = 0.000713864, No Iterations 4
GAMG:  Solving for p, Initial residual = 0.21109, Final residual = 0.0187353, No Iterations 3
time step continuity errors : sum local = 0.0395259, global = -0.00800098, cumulative = 0.0520978
smoothSolver:  Solving for omega, Initial residual = 0.00100972, Final residual = 6.87659e-05, No Iterations 4
smoothSolver:  Solving for k, Initial residual = 0.00795637, Final residual = 0.000469322, No Iterations 4
ExecutionTime = 2.37 s  ClockTime = 2 s

Time = 53

smoothSolver:  Solving for Ux, Initial residual = 0.0136425, Final residual = 0.000846234, No Iterations 4
smoothSolver:  Solving for Uy, Initial residual = 0.010126, Final residual = 0.000642074, No Iterations 4
GAMG:  Solving for p, Initial residual = 0.220227, Final residual = 0.0184002, No Iterations 3
time step continuity errors : sum local = 0.0346461, global = -0.00402025, cumulative = 0.0480776
smoothSolver:  Solving for omega, Initial residual = 0.000978561, Final residual = 6.63921e-05, No Iterations 4
smoothSolver:  Solving for k, Initial residual = 0.00776289, Final residual = 0.000457884, No Iterations 4
ExecutionTime = 2.41 s  ClockTime = 2 s

Time = 54

smoothSolver:  Solving for Ux, Initial residual = 0.0132072, Final residual = 0.000823356, No Iterations 4
smoothSolver:  Solving for Uy, Initial residual = 0.00962118, Final residual = 0.000609198, No Iterations 4
GAMG:  Solving for p, Initial residual = 0.220943, Final residual = 0.0177735, No Iterations 3
time step continuity errors : sum local = 0.0314902, global = 0.00187561, cumulative = 0.0499532
smoothSolver:  Solving for omega, Initial residual = 0.000946019, Final residual = 6.38495e-05, No Iterations 4
smoothSolver:  Solving for k, Initial residual = 0.00757141, Final residual = 0.000448997, No Iterations 4
ExecutionTime = 2.46 s  ClockTime = 2 s

Time = 55

smoothSolver:  Solving for Ux, Initial residual = 0.0125911, Final residual = 0.000782104, No Iterations 4
smoothSolver:  Solving for Uy, Initial residual = 0.00923055, Final residual = 0.000598531, No Iterations 4
GAMG:  Solving for p, Initial residual = 0.211092, Final residual = 0.018311, No Iterations 3
time step continuity errors : sum local = 0.0318676, global = 0.00528943, cumulative = 0.0552426
smoothSolver:  Solving for omega, Initial residual = 0.000914404, Final residual = 6.1293e-05, No Iterations 4
smoothSolver:  Solving for k, Initial residual = 0.00738421, Final residual = 0.00044023, No Iterations 4
ExecutionTime = 2.52 s  ClockTime = 2 s

Time = 56

smoothSolver:  Solving for Ux, Initial residual = 0.0117713, Final residual = 0.000721999, No Iterations 4
smoothSolver:  Solving for Uy, Initial residual = 0.00883424, Final residual = 0.000580049, No Iterations 4
GAMG:  Solving for p, Initial residual = 0.192968, Final residual = 0.0182473, No Iterations 3
time step continuity errors : sum local = 0.0324598, global = 0.00589349, cumulative = 0.0611361
smoothSolver:  Solving for omega, Initial residual = 0.000883521, Final residual = 5.88235e-05, No Iterations 4
smoothSolver:  Solving for k, Initial residual = 0.00724036, Final residual = 0.000433147, No Iterations 4
ExecutionTime = 2.56 s  ClockTime = 2 s

Time = 57

smoothSolver:  Solving for Ux, Initial residual = 0.0109473, Final residual = 0.000662941, No Iterations 4
smoothSolver:  Solving for Uy, Initial residual = 0.00867107, Final residual = 0.000568808, No Iterations 4
GAMG:  Solving for p, Initial residual = 0.172061, Final residual = 0.0154285, No Iterations 3
time step continuity errors : sum local = 0.0288182, global = 0.00438527, cumulative = 0.0655214
smoothSolver:  Solving for omega, Initial residual = 0.000854116, Final residual = 5.6556e-05, No Iterations 4
smoothSolver:  Solving for k, Initial residual = 0.00709786, Final residual = 0.000426918, No Iterations 4
ExecutionTime = 2.6 s  ClockTime = 2 s

Time = 58

smoothSolver:  Solving for Ux, Initial residual = 0.0104515, Final residual = 0.000627973, No Iterations 4
smoothSolver:  Solving for Uy, Initial residual = 0.00870361, Final residual = 0.000572993, No Iterations 4
GAMG:  Solving for p, Initial residual = 0.154108, Final residual = 0.0126411, No Iterations 3
time step continuity errors : sum local = 0.0247693, global = 0.001601, cumulative = 0.0671224
smoothSolver:  Solving for omega, Initial residual = 0.000825344, Final residual = 5.44642e-05, No Iterations 4
smoothSolver:  Solving for k, Initial residual = 0.00696485, Final residual = 0.000422675, No Iterations 4
ExecutionTime = 2.64 s  ClockTime = 2 s

Time = 59

smoothSolver:  Solving for Ux, Initial residual = 0.0101346, Final residual = 0.000606586, No Iterations 4
smoothSolver:  Solving for Uy, Initial residual = 0.00840874, Final residual = 0.000549543, No Iterations 4
GAMG:  Solving for p, Initial residual = 0.140534, Final residual = 0.0119857, No Iterations 3
time step continuity errors : sum local = 0.0241774, global = -0.00118327, cumulative = 0.0659391
smoothSolver:  Solving for omega, Initial residual = 0.000797781, Final residual = 5.26262e-05, No Iterations 4
smoothSolver:  Solving for k, Initial residual = 0.0068404, Final residual = 0.000418513, No Iterations 4
ExecutionTime = 2.68 s  ClockTime = 2 s

Time = 60

smoothSolver:  Solving for Ux, Initial residual = 0.00977109, Final residual = 0.000589057, No Iterations 4
smoothSolver:  Solving for Uy, Initial residual = 0.00778004, Final residual = 0.000498261, No Iterations 4
GAMG:  Solving for p, Initial residual = 0.129955, Final residual = 0.0125326, No Iterations 3
time step continuity errors : sum local = 0.0255794, global = -0.00292822, cumulative = 0.0630109
smoothSolver:  Solving for omega, Initial residual = 0.000772609, Final residual = 5.07904e-05, No Iterations 4
smoothSolver:  Solving for k, Initial residual = 0.00672851, Final residual = 0.000414729, No Iterations 4
ExecutionTime = 2.72 s  ClockTime = 3 s

Time = 61

smoothSolver:  Solving for Ux, Initial residual = 0.00929431, Final residual = 0.000570433, No Iterations 4
smoothSolver:  Solving for Uy, Initial residual = 0.00721681, Final residual = 0.000453223, No Iterations 4
GAMG:  Solving for p, Initial residual = 0.124182, Final residual = 0.0117853, No Iterations 3
time step continuity errors : sum local = 0.0238086, global = -0.00318066, cumulative = 0.0598302
smoothSolver:  Solving for omega, Initial residual = 0.000747777, Final residual = 4.89783e-05, No Iterations 4
smoothSolver:  Solving for k, Initial residual = 0.00661869, Final residual = 0.000411911, No Iterations 4
ExecutionTime = 2.76 s  ClockTime = 3 s

Time = 62

smoothSolver:  Solving for Ux, Initial residual = 0.00891601, Final residual = 0.000551014, No Iterations 4
smoothSolver:  Solving for Uy, Initial residual = 0.00695264, Final residual = 0.000432065, No Iterations 4
GAMG:  Solving for p, Initial residual = 0.120999, Final residual = 0.0098763, No Iterations 3
time step continuity errors : sum local = 0.0194078, global = -0.00227129, cumulative = 0.0575589
smoothSolver:  Solving for omega, Initial residual = 0.000723979, Final residual = 4.73594e-05, No Iterations 4
smoothSolver:  Solving for k, Initial residual = 0.00651788, Final residual = 0.000407679, No Iterations 4
ExecutionTime = 2.81 s  ClockTime = 3 s

Time = 63

smoothSolver:  Solving for Ux, Initial residual = 0.00859701, Final residual = 0.000530178, No Iterations 4
smoothSolver:  Solving for Uy, Initial residual = 0.00673827, Final residual = 0.000419455, No Iterations 4
GAMG:  Solving for p, Initial residual = 0.119306, Final residual = 0.00916197, No Iterations 3
time step continuity errors : sum local = 0.017233, global = -0.00111204, cumulative = 0.0564469
smoothSolver:  Solving for omega, Initial residual = 0.00070054, Final residual = 4.5726e-05, No Iterations 4
smoothSolver:  Solving for k, Initial residual = 0.00642496, Final residual = 0.000402611, No Iterations 4
ExecutionTime = 2.85 s  ClockTime = 3 s

Time = 64

smoothSolver:  Solving for Ux, Initial residual = 0.00815225, Final residual = 0.000499274, No Iterations 4
smoothSolver:  Solving for Uy, Initial residual = 0.00634625, Final residual = 0.00039388, No Iterations 4
GAMG:  Solving for p, Initial residual = 0.118273, Final residual = 0.0102419, No Iterations 3
time step continuity errors : sum local = 0.018282, global = 4.7347e-05, cumulative = 0.0564942
smoothSolver:  Solving for omega, Initial residual = 0.000678389, Final residual = 4.41487e-05, No Iterations 4
smoothSolver:  Solving for k, Initial residual = 0.00634088, Final residual = 0.0003962, No Iterations 4
ExecutionTime = 2.89 s  ClockTime = 3 s

Time = 65

smoothSolver:  Solving for Ux, Initial residual = 0.00761028, Final residual = 0.000463995, No Iterations 4
smoothSolver:  Solving for Uy, Initial residual = 0.00603371, Final residual = 0.000376777, No Iterations 4
GAMG:  Solving for p, Initial residual = 0.116152, Final residual = 0.0111409, No Iterations 3
time step continuity errors : sum local = 0.0192346, global = 0.000844559, cumulative = 0.0573388
smoothSolver:  Solving for omega, Initial residual = 0.000657411, Final residual = 4.27041e-05, No Iterations 4
smoothSolver:  Solving for k, Initial residual = 0.00625494, Final residual = 0.000390058, No Iterations 4
ExecutionTime = 2.93 s  ClockTime = 3 s

Time = 66

smoothSolver:  Solving for Ux, Initial residual = 0.00727091, Final residual = 0.00044426, No Iterations 4
smoothSolver:  Solving for Uy, Initial residual = 0.00587231, Final residual = 0.000372343, No Iterations 4
GAMG:  Solving for p, Initial residual = 0.110994, Final residual = 0.00998175, No Iterations 3
time step continuity errors : sum local = 0.017049, global = 0.00122057, cumulative = 0.0585594
smoothSolver:  Solving for omega, Initial residual = 0.000637609, Final residual = 4.13984e-05, No Iterations 4
smoothSolver:  Solving for k, Initial residual = 0.00616032, Final residual = 0.000383814, No Iterations 4
ExecutionTime = 2.97 s  ClockTime = 3 s

Time = 67

smoothSolver:  Solving for Ux, Initial residual = 0.00709388, Final residual = 0.000435185, No Iterations 4
smoothSolver:  Solving for Uy, Initial residual = 0.00570377, Final residual = 0.00036377, No Iterations 4
GAMG:  Solving for p, Initial residual = 0.103718, Final residual = 0.00774701, No Iterations 3
time step continuity errors : sum local = 0.0133505, global = 0.00135622, cumulative = 0.0599156
smoothSolver:  Solving for omega, Initial residual = 0.000618228, Final residual = 4.0314e-05, No Iterations 4
smoothSolver:  Solving for k, Initial residual = 0.0060647, Final residual = 0.000378219, No Iterations 4
ExecutionTime = 3.01 s  ClockTime = 3 s

Time = 68

smoothSolver:  Solving for Ux, Initial residual = 0.00691304, Final residual = 0.00043124, No Iterations 4
smoothSolver:  Solving for Uy, Initial residual = 0.00538878, Final residual = 0.000343358, No Iterations 4
GAMG:  Solving for p, Initial residual = 0.0938697, Final residual = 0.00697856, No Iterations 3
time step continuity errors : sum local = 0.012512, global = 0.0011659, cumulative = 0.0610815
smoothSolver:  Solving for omega, Initial residual = 0.000599631, Final residual = 3.92316e-05, No Iterations 4
smoothSolver:  Solving for k, Initial residual = 0.00596721, Final residual = 0.000371734, No Iterations 4
ExecutionTime = 3.05 s  ClockTime = 3 s

Time = 69

smoothSolver:  Solving for Ux, Initial residual = 0.00663781, Final residual = 0.000419347, No Iterations 4
smoothSolver:  Solving for Uy, Initial residual = 0.00486907, Final residual = 0.000308569, No Iterations 4
GAMG:  Solving for p, Initial residual = 0.0851911, Final residual = 0.00700679, No Iterations 3
time step continuity errors : sum local = 0.0131881, global = 0.0010281, cumulative = 0.0621096
smoothSolver:  Solving for omega, Initial residual = 0.00058077, Final residual = 3.80318e-05, No Iterations 4
smoothSolver:  Solving for k, Initial residual = 0.00584804, Final residual = 0.000364633, No Iterations 4
ExecutionTime = 3.09 s  ClockTime = 3 s

Time = 70

smoothSolver:  Solving for Ux, Initial residual = 0.00633608, Final residual = 0.000399558, No Iterations 4
smoothSolver:  Solving for Uy, Initial residual = 0.00455304, Final residual = 0.000290567, No Iterations 4
GAMG:  Solving for p, Initial residual = 0.0795165, Final residual = 0.00689805, No Iterations 3
time step continuity errors : sum local = 0.0133063, global = 0.000985016, cumulative = 0.0630946
smoothSolver:  Solving for omega, Initial residual = 0.000562086, Final residual = 3.67709e-05, No Iterations 4
smoothSolver:  Solving for k, Initial residual = 0.00571989, Final residual = 0.000356665, No Iterations 4
ExecutionTime = 3.13 s  ClockTime = 3 s

Time = 71

smoothSolver:  Solving for Ux, Initial residual = 0.00616369, Final residual = 0.00038526, No Iterations 4
smoothSolver:  Solving for Uy, Initial residual = 0.00436568, Final residual = 0.00028041, No Iterations 4
GAMG:  Solving for p, Initial residual = 0.0752569, Final residual = 0.00571241, No Iterations 3
time step continuity errors : sum local = 0.0110685, global = 0.000438387, cumulative = 0.063533
smoothSolver:  Solving for omega, Initial residual = 0.000545883, Final residual = 3.563e-05, No Iterations 4
smoothSolver:  Solving for k, Initial residual = 0.00558625, Final residual = 0.000348618, No Iterations 4
ExecutionTime = 3.17 s  ClockTime = 3 s

Time = 72

smoothSolver:  Solving for Ux, Initial residual = 0.00603586, Final residual = 0.000376535, No Iterations 4
smoothSolver:  Solving for Uy, Initial residual = 0.00421071, Final residual = 0.000272371, No Iterations 4
GAMG:  Solving for p, Initial residual = 0.0715314, Final residual = 0.00504291, No Iterations 3
time step continuity errors : sum local = 0.00969006, global = -0.000197664, cumulative = 0.0633353
smoothSolver:  Solving for omega, Initial residual = 0.000531155, Final residual = 3.44781e-05, No Iterations 4
smoothSolver:  Solving for k, Initial residual = 0.00545635, Final residual = 0.000340462, No Iterations 4
ExecutionTime = 3.21 s  ClockTime = 3 s

Time = 73

smoothSolver:  Solving for Ux, Initial residual = 0.00577894, Final residual = 0.000360998, No Iterations 4
smoothSolver:  Solving for Uy, Initial residual = 0.00405812, Final residual = 0.000263427, No Iterations 4
GAMG:  Solving for p, Initial residual = 0.0692374, Final residual = 0.00513842, No Iterations 3
time step continuity errors : sum local = 0.00963262, global = -0.000561096, cumulative = 0.0627743
smoothSolver:  Solving for omega, Initial residual = 0.000516041, Final residual = 3.32304e-05, No Iterations 4
smoothSolver:  Solving for k, Initial residual = 0.00533107, Final residual = 0.000332604, No Iterations 4
ExecutionTime = 3.25 s  ClockTime = 3 s

Time = 74

smoothSolver:  Solving for Ux, Initial residual = 0.00549645, Final residual = 0.000345869, No Iterations 4
smoothSolver:  Solving for Uy, Initial residual = 0.00392774, Final residual = 0.000256708, No Iterations 4
GAMG:  Solving for p, Initial residual = 0.0678193, Final residual = 0.00537724, No Iterations 3
time step continuity errors : sum local = 0.00980405, global = -0.000854415, cumulative = 0.0619198
smoothSolver:  Solving for omega, Initial residual = 0.000500475, Final residual = 3.19582e-05, No Iterations 4
smoothSolver:  Solving for k, Initial residual = 0.00520319, Final residual = 0.000325694, No Iterations 4
ExecutionTime = 3.29 s  ClockTime = 3 s

Time = 75

smoothSolver:  Solving for Ux, Initial residual = 0.00527872, Final residual = 0.000336247, No Iterations 4
smoothSolver:  Solving for Uy, Initial residual = 0.00383561, Final residual = 0.000251777, No Iterations 4
GAMG:  Solving for p, Initial residual = 0.0658406, Final residual = 0.00497701, No Iterations 3
time step continuity errors : sum local = 0.0089211, global = -0.00072616, cumulative = 0.0611937
smoothSolver:  Solving for omega, Initial residual = 0.000484879, Final residual = 3.08043e-05, No Iterations 4
smoothSolver:  Solving for k, Initial residual = 0.0050795, Final residual = 0.000319177, No Iterations 4
ExecutionTime = 3.33 s  ClockTime = 3 s

Time = 76

smoothSolver:  Solving for Ux, Initial residual = 0.00513192, Final residual = 0.000330924, No Iterations 4
smoothSolver:  Solving for Uy, Initial residual = 0.00372426, Final residual = 0.000245198, No Iterations 4
GAMG:  Solving for p, Initial residual = 0.0625537, Final residual = 0.00420313, No Iterations 3
time step continuity errors : sum local = 0.00750511, global = -4.25668e-05, cumulative = 0.0611511
smoothSolver:  Solving for omega, Initial residual = 0.000470239, Final residual = 2.98147e-05, No Iterations 4
smoothSolver:  Solving for k, Initial residual = 0.00496053, Final residual = 0.00031304, No Iterations 4
ExecutionTime = 3.38 s  ClockTime = 3 s

Time = 77

smoothSolver:  Solving for Ux, Initial residual = 0.00500547, Final residual = 0.000325268, No Iterations 4
smoothSolver:  Solving for Uy, Initial residual = 0.00351212, Final residual = 0.000231865, No Iterations 4
GAMG:  Solving for p, Initial residual = 0.0584004, Final residual = 0.00395129, No Iterations 3
time step continuity errors : sum local = 0.00713044, global = 0.00060481, cumulative = 0.0617559
smoothSolver:  Solving for omega, Initial residual = 0.00045639, Final residual = 2.88884e-05, No Iterations 4
smoothSolver:  Solving for k, Initial residual = 0.00484268, Final residual = 0.000307311, No Iterations 4
ExecutionTime = 3.42 s  ClockTime = 3 s

Time = 78

smoothSolver:  Solving for Ux, Initial residual = 0.00485906, Final residual = 0.0003154, No Iterations 4
smoothSolver:  Solving for Uy, Initial residual = 0.00327091, Final residual = 0.000217109, No Iterations 4
GAMG:  Solving for p, Initial residual = 0.0542815, Final residual = 0.00383675, No Iterations 3
time step continuity errors : sum local = 0.00708726, global = 0.00117772, cumulative = 0.0629336
smoothSolver:  Solving for omega, Initial residual = 0.000442517, Final residual = 2.79651e-05, No Iterations 4
smoothSolver:  Solving for k, Initial residual = 0.00473097, Final residual = 0.000302265, No Iterations 4
ExecutionTime = 3.46 s  ClockTime = 3 s

Time = 79

smoothSolver:  Solving for Ux, Initial residual = 0.00475327, Final residual = 0.000307181, No Iterations 4
smoothSolver:  Solving for Uy, Initial residual = 0.00312177, Final residual = 0.000209829, No Iterations 4
GAMG:  Solving for p, Initial residual = 0.0509652, Final residual = 0.00359292, No Iterations 3
time step continuity errors : sum local = 0.00678881, global = 0.00149581, cumulative = 0.0644295
smoothSolver:  Solving for omega, Initial residual = 0.000429092, Final residual = 2.70254e-05, No Iterations 4
smoothSolver:  Solving for k, Initial residual = 0.00463724, Final residual = 0.00029762, No Iterations 4
ExecutionTime = 3.5 s  ClockTime = 3 s

Time = 80

smoothSolver:  Solving for Ux, Initial residual = 0.00469465, Final residual = 0.000301488, No Iterations 4
smoothSolver:  Solving for Uy, Initial residual = 0.00305983, Final residual = 0.000206539, No Iterations 4
GAMG:  Solving for p, Initial residual = 0.0476672, Final residual = 0.00327547, No Iterations 3
time step continuity errors : sum local = 0.00627471, global = 0.00128281, cumulative = 0.0657123
smoothSolver:  Solving for omega, Initial residual = 0.000417125, Final residual = 2.61646e-05, No Iterations 4
smoothSolver:  Solving for k, Initial residual = 0.00454974, Final residual = 0.000293449, No Iterations 4
ExecutionTime = 3.54 s  ClockTime = 3 s

Time = 81

smoothSolver:  Solving for Ux, Initial residual = 0.00457557, Final residual = 0.000293661, No Iterations 4
smoothSolver:  Solving for Uy, Initial residual = 0.00303232, Final residual = 0.000204475, No Iterations 4
GAMG:  Solving for p, Initial residual = 0.0445, Final residual = 0.00309031, No Iterations 3
time step continuity errors : sum local = 0.00594511, global = 0.000676286, cumulative = 0.0663885
smoothSolver:  Solving for omega, Initial residual = 0.000405228, Final residual = 2.53726e-05, No Iterations 4
smoothSolver:  Solving for k, Initial residual = 0.00446364, Final residual = 0.000289384, No Iterations 4
ExecutionTime = 3.58 s  ClockTime = 3 s

Time = 82

smoothSolver:  Solving for Ux, Initial residual = 0.00443614, Final residual = 0.000286148, No Iterations 4
smoothSolver:  Solving for Uy, Initial residual = 0.00298612, Final residual = 0.000201773, No Iterations 4
GAMG:  Solving for p, Initial residual = 0.0423061, Final residual = 0.00296265, No Iterations 3
time step continuity errors : sum local = 0.00567763, global = -0.000108291, cumulative = 0.0662803
smoothSolver:  Solving for omega, Initial residual = 0.000392667, Final residual = 2.45497e-05, No Iterations 4
smoothSolver:  Solving for k, Initial residual = 0.00437934, Final residual = 0.000285405, No Iterations 4
ExecutionTime = 3.62 s  ClockTime = 3 s

Time = 83

smoothSolver:  Solving for Ux, Initial residual = 0.00431394, Final residual = 0.000280837, No Iterations 4
smoothSolver:  Solving for Uy, Initial residual = 0.0029212, Final residual = 0.000197604, No Iterations 4
GAMG:  Solving for p, Initial residual = 0.0408201, Final residual = 0.00274541, No Iterations 3
time step continuity errors : sum local = 0.00522547, global = -0.000662407, cumulative = 0.0656178
smoothSolver:  Solving for omega, Initial residual = 0.00038006, Final residual = 2.36895e-05, No Iterations 4
smoothSolver:  Solving for k, Initial residual = 0.00429542, Final residual = 0.00028149, No Iterations 4
ExecutionTime = 3.67 s  ClockTime = 3 s

Time = 84

smoothSolver:  Solving for Ux, Initial residual = 0.00422942, Final residual = 0.000277808, No Iterations 4
smoothSolver:  Solving for Uy, Initial residual = 0.0028876, Final residual = 0.000195365, No Iterations 4
GAMG:  Solving for p, Initial residual = 0.0391651, Final residual = 0.00249102, No Iterations 3
time step continuity errors : sum local = 0.00470398, global = -0.000804006, cumulative = 0.0648138
smoothSolver:  Solving for omega, Initial residual = 0.000367871, Final residual = 2.28495e-05, No Iterations 4
smoothSolver:  Solving for k, Initial residual = 0.00422601, Final residual = 0.00027766, No Iterations 4
ExecutionTime = 3.71 s  ClockTime = 4 s

Time = 85

smoothSolver:  Solving for Ux, Initial residual = 0.00414689, Final residual = 0.000274542, No Iterations 4
smoothSolver:  Solving for Uy, Initial residual = 0.00286013, Final residual = 0.000194392, No Iterations 4
GAMG:  Solving for p, Initial residual = 0.0370121, Final residual = 0.00236155, No Iterations 3
time step continuity errors : sum local = 0.00443431, global = -0.000577282, cumulative = 0.0642366
smoothSolver:  Solving for omega, Initial residual = 0.000356579, Final residual = 2.20555e-05, No Iterations 4
smoothSolver:  Solving for k, Initial residual = 0.0041572, Final residual = 0.000273415, No Iterations 4
ExecutionTime = 3.75 s  ClockTime = 4 s

Time = 86

smoothSolver:  Solving for Ux, Initial residual = 0.00406575, Final residual = 0.000269767, No Iterations 4
smoothSolver:  Solving for Uy, Initial residual = 0.00280168, Final residual = 0.000192331, No Iterations 4
GAMG:  Solving for p, Initial residual = 0.0347278, Final residual = 0.00239569, No Iterations 3
time step continuity errors : sum local = 0.00449555, global = -8.80901e-06, cumulative = 0.0642278
smoothSolver:  Solving for omega, Initial residual = 0.00034506, Final residual = 2.12819e-05, No Iterations 4
smoothSolver:  Solving for k, Initial residual = 0.00408435, Final residual = 0.000268726, No Iterations 4
ExecutionTime = 3.79 s  ClockTime = 4 s

Time = 87

smoothSolver:  Solving for Ux, Initial residual = 0.00399552, Final residual = 0.000264307, No Iterations 4
smoothSolver:  Solving for Uy, Initial residual = 0.00272582, Final residual = 0.000188831, No Iterations 4
GAMG:  Solving for p, Initial residual = 0.0328022, Final residual = 0.0022697, No Iterations 3
time step continuity errors : sum local = 0.00426922, global = 0.000634812, cumulative = 0.0648626
smoothSolver:  Solving for omega, Initial residual = 0.000332779, Final residual = 2.05194e-05, No Iterations 4
smoothSolver:  Solving for k, Initial residual = 0.00400805, Final residual = 0.000263743, No Iterations 4
ExecutionTime = 3.84 s  ClockTime = 4 s

Time = 88

smoothSolver:  Solving for Ux, Initial residual = 0.00394059, Final residual = 0.000259916, No Iterations 4
smoothSolver:  Solving for Uy, Initial residual = 0.00266853, Final residual = 0.000185375, No Iterations 4
GAMG:  Solving for p, Initial residual = 0.0308929, Final residual = 0.00205298, No Iterations 3
time step continuity errors : sum local = 0.00387725, global = 0.000967973, cumulative = 0.0658305
smoothSolver:  Solving for omega, Initial residual = 0.000320471, Final residual = 1.97914e-05, No Iterations 4
smoothSolver:  Solving for k, Initial residual = 0.00393343, Final residual = 0.000258352, No Iterations 4
ExecutionTime = 3.88 s  ClockTime = 4 s

Time = 89

smoothSolver:  Solving for Ux, Initial residual = 0.00387347, Final residual = 0.00025456, No Iterations 4
smoothSolver:  Solving for Uy, Initial residual = 0.00263107, Final residual = 0.00018252, No Iterations 4
GAMG:  Solving for p, Initial residual = 0.0288213, Final residual = 0.00187702, No Iterations 3
time step continuity errors : sum local = 0.00356549, global = 0.000938155, cumulative = 0.0667687
smoothSolver:  Solving for omega, Initial residual = 0.000309975, Final residual = 1.91232e-05, No Iterations 4
smoothSolver:  Solving for k, Initial residual = 0.00385762, Final residual = 0.000252576, No Iterations 4
ExecutionTime = 3.92 s  ClockTime = 4 s

Time = 90

smoothSolver:  Solving for Ux, Initial residual = 0.00378967, Final residual = 0.000249095, No Iterations 4
smoothSolver:  Solving for Uy, Initial residual = 0.0026032, Final residual = 0.000180318, No Iterations 4
GAMG:  Solving for p, Initial residual = 0.0268051, Final residual = 0.0017406, No Iterations 3
time step continuity errors : sum local = 0.00332664, global = 0.000690837, cumulative = 0.0674595
smoothSolver:  Solving for omega, Initial residual = 0.000299934, Final residual = 1.84541e-05, No Iterations 4
smoothSolver:  Solving for k, Initial residual = 0.00378192, Final residual = 0.000246466, No Iterations 4
ExecutionTime = 3.96 s  ClockTime = 4 s

Time = 91

smoothSolver:  Solving for Ux, Initial residual = 0.00375342, Final residual = 0.000246789, No Iterations 4
smoothSolver:  Solving for Uy, Initial residual = 0.0025711, Final residual = 0.000178551, No Iterations 4
GAMG:  Solving for p, Initial residual = 0.0251962, Final residual = 0.0016327, No Iterations 3
time step continuity errors : sum local = 0.00313259, global = 0.000245478, cumulative = 0.067705
smoothSolver:  Solving for omega, Initial residual = 0.000289517, Final residual = 1.78019e-05, No Iterations 4
smoothSolver:  Solving for k, Initial residual = 0.00370135, Final residual = 0.00024009, No Iterations 4
ExecutionTime = 4 s  ClockTime = 4 s

Time = 92

smoothSolver:  Solving for Ux, Initial residual = 0.00372143, Final residual = 0.000244927, No Iterations 4
smoothSolver:  Solving for Uy, Initial residual = 0.0025273, Final residual = 0.000176487, No Iterations 4
GAMG:  Solving for p, Initial residual = 0.0237843, Final residual = 0.00148365, No Iterations 3
time step continuity errors : sum local = 0.00285129, global = -0.000201744, cumulative = 0.0675033
smoothSolver:  Solving for omega, Initial residual = 0.000278735, Final residual = 1.71803e-05, No Iterations 4
smoothSolver:  Solving for k, Initial residual = 0.00362359, Final residual = 0.000233733, No Iterations 4
ExecutionTime = 4.04 s  ClockTime = 4 s

Time = 93

smoothSolver:  Solving for Ux, Initial residual = 0.00366016, Final residual = 0.00024159, No Iterations 4
smoothSolver:  Solving for Uy, Initial residual = 0.0024757, Final residual = 0.000174148, No Iterations 4
GAMG:  Solving for p, Initial residual = 0.0223171, Final residual = 0.00140538, No Iterations 3
time step continuity errors : sum local = 0.00270269, global = -0.000407803, cumulative = 0.0670955
smoothSolver:  Solving for omega, Initial residual = 0.000269066, Final residual = 1.66005e-05, No Iterations 4
smoothSolver:  Solving for k, Initial residual = 0.00354528, Final residual = 0.000227359, No Iterations 4
ExecutionTime = 4.08 s  ClockTime = 4 s

Time = 94

smoothSolver:  Solving for Ux, Initial residual = 0.00357918, Final residual = 0.0002375, No Iterations 4
smoothSolver:  Solving for Uy, Initial residual = 0.00242741, Final residual = 0.000171472, No Iterations 4
GAMG:  Solving for p, Initial residual = 0.0209066, Final residual = 0.00138449, No Iterations 3
time step continuity errors : sum local = 0.00265974, global = -0.000409328, cumulative = 0.0666861
smoothSolver:  Solving for omega, Initial residual = 0.000260299, Final residual = 1.60764e-05, No Iterations 4
smoothSolver:  Solving for k, Initial residual = 0.00346895, Final residual = 0.000221215, No Iterations 4
ExecutionTime = 4.12 s  ClockTime = 4 s

Time = 95

smoothSolver:  Solving for Ux, Initial residual = 0.003513, Final residual = 0.000233227, No Iterations 4
smoothSolver:  Solving for Uy, Initial residual = 0.00238006, Final residual = 0.000168755, No Iterations 4
GAMG:  Solving for p, Initial residual = 0.019851, Final residual = 0.00134996, No Iterations 3
time step continuity errors : sum local = 0.00258698, global = -0.000236122, cumulative = 0.06645
smoothSolver:  Solving for omega, Initial residual = 0.000251909, Final residual = 1.55562e-05, No Iterations 4
smoothSolver:  Solving for k, Initial residual = 0.00339498, Final residual = 0.000215151, No Iterations 4
ExecutionTime = 4.16 s  ClockTime = 4 s

Time = 96

smoothSolver:  Solving for Ux, Initial residual = 0.00344513, Final residual = 0.000228861, No Iterations 4
smoothSolver:  Solving for Uy, Initial residual = 0.00232838, Final residual = 0.000165559, No Iterations 4
GAMG:  Solving for p, Initial residual = 0.0190664, Final residual = 0.00125036, No Iterations 3
time step continuity errors : sum local = 0.00238823, global = 3.05402e-05, cumulative = 0.0664805
smoothSolver:  Solving for omega, Initial residual = 0.000243061, Final residual = 1.50454e-05, No Iterations 4
smoothSolver:  Solving for k, Initial residual = 0.00332137, Final residual = 0.00020896, No Iterations 4
ExecutionTime = 4.2 s  ClockTime = 4 s

Time = 97

smoothSolver:  Solving for Ux, Initial residual = 0.00336497, Final residual = 0.00022406, No Iterations 4
smoothSolver:  Solving for Uy, Initial residual = 0.00226901, Final residual = 0.000161431, No Iterations 4
GAMG:  Solving for p, Initial residual = 0.0181495, Final residual = 0.00118041, No Iterations 3
time step continuity errors : sum local = 0.00224736, global = 0.000247529, cumulative = 0.0667281
smoothSolver:  Solving for omega, Initial residual = 0.00023388, Final residual = 1.45537e-05, No Iterations 4
smoothSolver:  Solving for k, Initial residual = 0.00324214, Final residual = 0.000202619, No Iterations 4
ExecutionTime = 4.24 s  ClockTime = 4 s

Time = 98

smoothSolver:  Solving for Ux, Initial residual = 0.00329209, Final residual = 0.000219728, No Iterations 4
smoothSolver:  Solving for Uy, Initial residual = 0.00220943, Final residual = 0.000157112, No Iterations 4
GAMG:  Solving for p, Initial residual = 0.0172516, Final residual = 0.00108633, No Iterations 3
time step continuity errors : sum local = 0.00206251, global = 0.00034814, cumulative = 0.0670762
smoothSolver:  Solving for omega, Initial residual = 0.000225913, Final residual = 1.41261e-05, No Iterations 4
smoothSolver:  Solving for k, Initial residual = 0.00315704, Final residual = 0.000196139, No Iterations 4
ExecutionTime = 4.29 s  ClockTime = 4 s

Time = 99

smoothSolver:  Solving for Ux, Initial residual = 0.00324449, Final residual = 0.000216745, No Iterations 4
smoothSolver:  Solving for Uy, Initial residual = 0.00215691, Final residual = 0.000153254, No Iterations 4
GAMG:  Solving for p, Initial residual = 0.0163915, Final residual = 0.000966854, No Iterations 3
time step continuity errors : sum local = 0.00183446, global = 0.000331537, cumulative = 0.0674078
smoothSolver:  Solving for omega, Initial residual = 0.000218773, Final residual = 1.37425e-05, No Iterations 4
smoothSolver:  Solving for k, Initial residual = 0.00306668, Final residual = 0.000189412, No Iterations 4
ExecutionTime = 4.33 s  ClockTime = 4 s

Time = 100

smoothSolver:  Solving for Ux, Initial residual = 0.00319777, Final residual = 0.000213763, No Iterations 4
smoothSolver:  Solving for Uy, Initial residual = 0.0021083, Final residual = 0.000149735, No Iterations 4
GAMG:  Solving for p, Initial residual = 0.0155728, Final residual = 0.000845098, No Iterations 3
time step continuity errors : sum local = 0.00160647, global = 0.000229277, cumulative = 0.067637
smoothSolver:  Solving for omega, Initial residual = 0.000211768, Final residual = 1.33618e-05, No Iterations 4
smoothSolver:  Solving for k, Initial residual = 0.00297302, Final residual = 0.000182276, No Iterations 4
ExecutionTime = 4.48 s  ClockTime = 4 s

Time = 101

smoothSolver:  Solving for Ux, Initial residual = 0.00313752, Final residual = 0.000210122, No Iterations 4
smoothSolver:  Solving for Uy, Initial residual = 0.00206846, Final residual = 0.000146794, No Iterations 4
GAMG:  Solving for p, Initial residual = 0.0147799, Final residual = 0.000830953, No Iterations 3
time step continuity errors : sum local = 0.00158584, global = 0.000110372, cumulative = 0.0677474
smoothSolver:  Solving for omega, Initial residual = 0.000204913, Final residual = 1.29633e-05, No Iterations 4
smoothSolver:  Solving for k, Initial residual = 0.00287557, Final residual = 0.000175173, No Iterations 4
ExecutionTime = 4.52 s  ClockTime = 4 s

Time = 102

smoothSolver:  Solving for Ux, Initial residual = 0.00308398, Final residual = 0.00020669, No Iterations 4
smoothSolver:  Solving for Uy, Initial residual = 0.00201922, Final residual = 0.000143802, No Iterations 4
GAMG:  Solving for p, Initial residual = 0.0140247, Final residual = 0.000890205, No Iterations 3
time step continuity errors : sum local = 0.00170723, global = 1.36066e-05, cumulative = 0.067761
smoothSolver:  Solving for omega, Initial residual = 0.00019835, Final residual = 1.25713e-05, No Iterations 4
smoothSolver:  Solving for k, Initial residual = 0.00277879, Final residual = 0.000167975, No Iterations 4
ExecutionTime = 4.56 s  ClockTime = 4 s

Time = 103

smoothSolver:  Solving for Ux, Initial residual = 0.00304935, Final residual = 0.000204733, No Iterations 4
smoothSolver:  Solving for Uy, Initial residual = 0.00196342, Final residual = 0.000140549, No Iterations 4
GAMG:  Solving for p, Initial residual = 0.0133907, Final residual = 0.000849268, No Iterations 3
time step continuity errors : sum local = 0.00163366, global = -4.01192e-05, cumulative = 0.0677209
smoothSolver:  Solving for omega, Initial residual = 0.000192687, Final residual = 1.22086e-05, No Iterations 4
smoothSolver:  Solving for k, Initial residual = 0.00268141, Final residual = 0.000160742, No Iterations 4
ExecutionTime = 4.61 s  ClockTime = 4 s

Time = 104

smoothSolver:  Solving for Ux, Initial residual = 0.00301135, Final residual = 0.000202644, No Iterations 4
smoothSolver:  Solving for Uy, Initial residual = 0.00191604, Final residual = 0.000137186, No Iterations 4
GAMG:  Solving for p, Initial residual = 0.012884, Final residual = 0.000757292, No Iterations 3
time step continuity errors : sum local = 0.00145704, global = -5.83976e-05, cumulative = 0.0676625
smoothSolver:  Solving for omega, Initial residual = 0.000187492, Final residual = 1.18789e-05, No Iterations 4
smoothSolver:  Solving for k, Initial residual = 0.00258078, Final residual = 0.000153531, No Iterations 4
ExecutionTime = 4.65 s  ClockTime = 4 s

Time = 105

smoothSolver:  Solving for Ux, Initial residual = 0.00296685, Final residual = 0.000199954, No Iterations 4
smoothSolver:  Solving for Uy, Initial residual = 0.00187558, Final residual = 0.000134157, No Iterations 4
GAMG:  Solving for p, Initial residual = 0.012375, Final residual = 0.000695274, No Iterations 3
time step continuity errors : sum local = 0.001335, global = -4.72372e-05, cumulative = 0.0676153
smoothSolver:  Solving for omega, Initial residual = 0.000182111, Final residual = 1.15433e-05, No Iterations 4
smoothSolver:  Solving for k, Initial residual = 0.00247755, Final residual = 0.000146344, No Iterations 4
ExecutionTime = 4.69 s  ClockTime = 5 s

Time = 106

smoothSolver:  Solving for Ux, Initial residual = 0.00292191, Final residual = 0.000197628, No Iterations 4
smoothSolver:  Solving for Uy, Initial residual = 0.00184556, Final residual = 0.000132206, No Iterations 4
GAMG:  Solving for p, Initial residual = 0.0119273, Final residual = 0.000668767, No Iterations 3
time step continuity errors : sum local = 0.00127889, global = -3.66511e-05, cumulative = 0.0675786
smoothSolver:  Solving for omega, Initial residual = 0.000176884, Final residual = 1.12161e-05, No Iterations 4
smoothSolver:  Solving for k, Initial residual = 0.00237394, Final residual = 0.000139374, No Iterations 4
ExecutionTime = 4.73 s  ClockTime = 5 s

Time = 107

smoothSolver:  Solving for Ux, Initial residual = 0.00287169, Final residual = 0.000195158, No Iterations 4
smoothSolver:  Solving for Uy, Initial residual = 0.00182611, Final residual = 0.00013099, No Iterations 4
GAMG:  Solving for p, Initial residual = 0.0114613, Final residual = 0.000630891, No Iterations 3
time step continuity errors : sum local = 0.00120185, global = -3.34324e-05, cumulative = 0.0675452
smoothSolver:  Solving for omega, Initial residual = 0.000171983, Final residual = 1.09027e-05, No Iterations 4
smoothSolver:  Solving for k, Initial residual = 0.0022699, Final residual = 0.000132569, No Iterations 4
ExecutionTime = 4.77 s  ClockTime = 5 s

Time = 108

smoothSolver:  Solving for Ux, Initial residual = 0.00281767, Final residual = 0.000191994, No Iterations 4
smoothSolver:  Solving for Uy, Initial residual = 0.00180994, Final residual = 0.000129902, No Iterations 4
GAMG:  Solving for p, Initial residual = 0.0110114, Final residual = 0.000542975, No Iterations 3
time step continuity errors : sum local = 0.00103209, global = -2.82823e-05, cumulative = 0.0675169
smoothSolver:  Solving for omega, Initial residual = 0.000167327, Final residual = 1.06011e-05, No Iterations 4
smoothSolver:  Solving for k, Initial residual = 0.00216909, Final residual = 0.000126096, No Iterations 4
ExecutionTime = 4.81 s  ClockTime = 5 s

Time = 109

smoothSolver:  Solving for Ux, Initial residual = 0.00277229, Final residual = 0.000188869, No Iterations 4
smoothSolver:  Solving for Uy, Initial residual = 0.00179129, Final residual = 0.000128638, No Iterations 4
GAMG:  Solving for p, Initial residual = 0.0106117, Final residual = 0.00103805, No Iterations 2
time step continuity errors : sum local = 0.00197198, global = -1.10738e-05, cumulative = 0.0675058
smoothSolver:  Solving for omega, Initial residual = 0.000163097, Final residual = 1.03129e-05, No Iterations 4
smoothSolver:  Solving for k, Initial residual = 0.00207119, Final residual = 0.000119882, No Iterations 4
ExecutionTime = 4.85 s  ClockTime = 5 s

Time = 110

smoothSolver:  Solving for Ux, Initial residual = 0.00273181, Final residual = 0.00018569, No Iterations 4
smoothSolver:  Solving for Uy, Initial residual = 0.00176236, Final residual = 0.000126692, No Iterations 4
GAMG:  Solving for p, Initial residual = 0.0104174, Final residual = 0.000588467, No Iterations 3
time step continuity errors : sum local = 0.00111825, global = 3.20908e-05, cumulative = 0.0675379
smoothSolver:  Solving for omega, Initial residual = 0.000158957, Final residual = 1.00288e-05, No Iterations 4
smoothSolver:  Solving for k, Initial residual = 0.00197623, Final residual = 0.000114113, No Iterations 4
ExecutionTime = 4.89 s  ClockTime = 5 s

Time = 111

smoothSolver:  Solving for Ux, Initial residual = 0.002712, Final residual = 0.000184242, No Iterations 4
smoothSolver:  Solving for Uy, Initial residual = 0.00175256, Final residual = 0.000126225, No Iterations 4
GAMG:  Solving for p, Initial residual = 0.0098896, Final residual = 0.00055498, No Iterations 3
time step continuity errors : sum local = 0.00105787, global = 5.82435e-05, cumulative = 0.0675961
smoothSolver:  Solving for omega, Initial residual = 0.00015502, Final residual = 9.74736e-06, No Iterations 4
smoothSolver:  Solving for k, Initial residual = 0.00188475, Final residual = 0.000108683, No Iterations 4
ExecutionTime = 4.94 s  ClockTime = 5 s

Time = 112

smoothSolver:  Solving for Ux, Initial residual = 0.00270575, Final residual = 0.000183439, No Iterations 4
smoothSolver:  Solving for Uy, Initial residual = 0.00174375, Final residual = 0.000126002, No Iterations 4
GAMG:  Solving for p, Initial residual = 0.00970419, Final residual = 0.000515041, No Iterations 3
time step continuity errors : sum local = 0.000984461, global = 7.67615e-05, cumulative = 0.0676729
smoothSolver:  Solving for omega, Initial residual = 0.000151483, Final residual = 9.47035e-06, No Iterations 4
smoothSolver:  Solving for k, Initial residual = 0.00179757, Final residual = 0.000103502, No Iterations 4
ExecutionTime = 4.98 s  ClockTime = 5 s

Time = 113

smoothSolver:  Solving for Ux, Initial residual = 0.00270594, Final residual = 0.000182778, No Iterations 4
smoothSolver:  Solving for Uy, Initial residual = 0.00173263, Final residual = 0.000125536, No Iterations 4
GAMG:  Solving for p, Initial residual = 0.00948094, Final residual = 0.000482947, No Iterations 3
time step continuity errors : sum local = 0.000923683, global = 6.49082e-05, cumulative = 0.0677378
smoothSolver:  Solving for omega, Initial residual = 0.000147932, Final residual = 9.19091e-06, No Iterations 4
smoothSolver:  Solving for k, Initial residual = 0.00171371, Final residual = 9.87239e-05, No Iterations 4
ExecutionTime = 5.02 s  ClockTime = 5 s

Time = 114

smoothSolver:  Solving for Ux, Initial residual = 0.00269042, Final residual = 0.000181232, No Iterations 4
smoothSolver:  Solving for Uy, Initial residual = 0.00172522, Final residual = 0.000125304, No Iterations 4
GAMG:  Solving for p, Initial residual = 0.00911096, Final residual = 0.000892327, No Iterations 2
time step continuity errors : sum local = 0.0017045, global = 2.92308e-05, cumulative = 0.067767
smoothSolver:  Solving for omega, Initial residual = 0.000144525, Final residual = 8.91731e-06, No Iterations 4
smoothSolver:  Solving for k, Initial residual = 0.00163512, Final residual = 9.41467e-05, No Iterations 4
ExecutionTime = 5.06 s  ClockTime = 5 s

Time = 115

smoothSolver:  Solving for Ux, Initial residual = 0.00264905, Final residual = 0.000178151, No Iterations 4
smoothSolver:  Solving for Uy, Initial residual = 0.00171252, Final residual = 0.000124754, No Iterations 4
GAMG:  Solving for p, Initial residual = 0.00892825, Final residual = 0.000453568, No Iterations 3
time step continuity errors : sum local = 0.00086492, global = -4.30022e-05, cumulative = 0.067724
smoothSolver:  Solving for omega, Initial residual = 0.000141244, Final residual = 8.64751e-06, No Iterations 4
smoothSolver:  Solving for k, Initial residual = 0.00156179, Final residual = 8.99949e-05, No Iterations 4
ExecutionTime = 5.1 s  ClockTime = 5 s

Time = 116

[...]
GAMG:  Solving for p, Initial residual = 1.18417e-07, Final residual = 9.19999e-09, No Iterations 1
time step continuity errors : sum local = 1.83481e-08, global = 4.80055e-09, cumulative = 0.0653415
smoothSolver:  Solving for omega, Initial residual = 9.78791e-09, Final residual = 9.78791e-09, No Iterations 0
smoothSolver:  Solving for k, Initial residual = 9.85131e-09, Final residual = 9.85131e-09, No Iterations 0
ExecutionTime = 100.96 s  ClockTime = 103 s

Time = 2973

smoothSolver:  Solving for Ux, Initial residual = 7.47722e-09, Final residual = 7.47722e-09, No Iterations 0
smoothSolver:  Solving for Uy, Initial residual = 9.56497e-09, Final residual = 9.56497e-09, No Iterations 0
GAMG:  Solving for p, Initial residual = 9.9364e-08, Final residual = 9.9364e-08, No Iterations 0
time step continuity errors : sum local = 1.98168e-07, global = 8.21629e-09, cumulative = 0.0653415
smoothSolver:  Solving for omega, Initial residual = 9.78789e-09, Final residual = 9.78789e-09, No Iterations 0
smoothSolver:  Solving for k, Initial residual = 9.91192e-09, Final residual = 9.91192e-09, No Iterations 0
ExecutionTime = 100.98 s  ClockTime = 104 s

Time = 2974

smoothSolver:  Solving for Ux, Initial residual = 7.90529e-09, Final residual = 7.90529e-09, No Iterations 0
smoothSolver:  Solving for Uy, Initial residual = 1.03471e-08, Final residual = 4.11595e-09, No Iterations 1
GAMG:  Solving for p, Initial residual = 1.86179e-07, Final residual = 1.20724e-08, No Iterations 1
time step continuity errors : sum local = 2.40768e-08, global = -1.52569e-10, cumulative = 0.0653415
smoothSolver:  Solving for omega, Initial residual = 9.78828e-09, Final residual = 9.78828e-09, No Iterations 0
smoothSolver:  Solving for k, Initial residual = 9.89111e-09, Final residual = 9.89111e-09, No Iterations 0
ExecutionTime = 101.01 s  ClockTime = 104 s

Time = 2975

smoothSolver:  Solving for Ux, Initial residual = 8.78116e-09, Final residual = 8.78116e-09, No Iterations 0
smoothSolver:  Solving for Uy, Initial residual = 8.03648e-09, Final residual = 8.03648e-09, No Iterations 0
GAMG:  Solving for p, Initial residual = 1.29898e-07, Final residual = 9.88922e-09, No Iterations 1
time step continuity errors : sum local = 1.97227e-08, global = -2.24018e-09, cumulative = 0.0653415
smoothSolver:  Solving for omega, Initial residual = 9.78828e-09, Final residual = 9.78828e-09, No Iterations 0
smoothSolver:  Solving for k, Initial residual = 9.89429e-09, Final residual = 9.89429e-09, No Iterations 0
ExecutionTime = 101.03 s  ClockTime = 104 s

Time = 2976

smoothSolver:  Solving for Ux, Initial residual = 9.05941e-09, Final residual = 9.05941e-09, No Iterations 0
smoothSolver:  Solving for Uy, Initial residual = 8.73914e-09, Final residual = 8.73914e-09, No Iterations 0
GAMG:  Solving for p, Initial residual = 1.29086e-07, Final residual = 8.07369e-09, No Iterations 1
time step continuity errors : sum local = 1.61019e-08, global = -3.70545e-09, cumulative = 0.0653415
smoothSolver:  Solving for omega, Initial residual = 9.78811e-09, Final residual = 9.78811e-09, No Iterations 0
smoothSolver:  Solving for k, Initial residual = 9.88527e-09, Final residual = 9.88527e-09, No Iterations 0
ExecutionTime = 101.06 s  ClockTime = 104 s

Time = 2977

smoothSolver:  Solving for Ux, Initial residual = 9.55004e-09, Final residual = 9.55004e-09, No Iterations 0
smoothSolver:  Solving for Uy, Initial residual = 9.79638e-09, Final residual = 9.79638e-09, No Iterations 0
GAMG:  Solving for p, Initial residual = 1.44919e-07, Final residual = 8.52661e-09, No Iterations 1
time step continuity errors : sum local = 1.70052e-08, global = -4.26766e-09, cumulative = 0.0653415
smoothSolver:  Solving for omega, Initial residual = 9.78786e-09, Final residual = 9.78786e-09, No Iterations 0
smoothSolver:  Solving for k, Initial residual = 9.85207e-09, Final residual = 9.85207e-09, No Iterations 0
ExecutionTime = 101.09 s  ClockTime = 104 s

Time = 2978

smoothSolver:  Solving for Ux, Initial residual = 9.67557e-09, Final residual = 9.67557e-09, No Iterations 0
smoothSolver:  Solving for Uy, Initial residual = 1.08962e-08, Final residual = 4.51319e-09, No Iterations 1
GAMG:  Solving for p, Initial residual = 2.38738e-07, Final residual = 1.58365e-08, No Iterations 1
time step continuity errors : sum local = 3.15837e-08, global = -3.1446e-09, cumulative = 0.0653415
smoothSolver:  Solving for omega, Initial residual = 9.78738e-09, Final residual = 9.78738e-09, No Iterations 0
smoothSolver:  Solving for k, Initial residual = 9.81346e-09, Final residual = 9.81346e-09, No Iterations 0
ExecutionTime = 101.11 s  ClockTime = 104 s

Time = 2979

smoothSolver:  Solving for Ux, Initial residual = 1.04359e-08, Final residual = 4.05723e-09, No Iterations 1
smoothSolver:  Solving for Uy, Initial residual = 8.61606e-09, Final residual = 8.61606e-09, No Iterations 0
GAMG:  Solving for p, Initial residual = 1.36493e-07, Final residual = 1.01747e-08, No Iterations 1
time step continuity errors : sum local = 2.0292e-08, global = 5.11123e-09, cumulative = 0.0653415
smoothSolver:  Solving for omega, Initial residual = 9.7876e-09, Final residual = 9.7876e-09, No Iterations 0
smoothSolver:  Solving for k, Initial residual = 9.84156e-09, Final residual = 9.84156e-09, No Iterations 0
ExecutionTime = 101.14 s  ClockTime = 104 s

Time = 2980

smoothSolver:  Solving for Ux, Initial residual = 7.00867e-09, Final residual = 7.00867e-09, No Iterations 0
smoothSolver:  Solving for Uy, Initial residual = 9.28204e-09, Final residual = 9.28204e-09, No Iterations 0
GAMG:  Solving for p, Initial residual = 1.25887e-07, Final residual = 8.90759e-09, No Iterations 1
time step continuity errors : sum local = 1.7765e-08, global = 5.72621e-09, cumulative = 0.0653415
smoothSolver:  Solving for omega, Initial residual = 9.78798e-09, Final residual = 9.78798e-09, No Iterations 0
smoothSolver:  Solving for k, Initial residual = 9.87702e-09, Final residual = 9.87702e-09, No Iterations 0
ExecutionTime = 101.16 s  ClockTime = 104 s

Time = 2981

smoothSolver:  Solving for Ux, Initial residual = 7.33242e-09, Final residual = 7.33242e-09, No Iterations 0
smoothSolver:  Solving for Uy, Initial residual = 1.03258e-08, Final residual = 3.93441e-09, No Iterations 1
GAMG:  Solving for p, Initial residual = 1.64468e-07, Final residual = 1.10827e-08, No Iterations 1
time step continuity errors : sum local = 2.2103e-08, global = 3.15172e-09, cumulative = 0.0653415
smoothSolver:  Solving for omega, Initial residual = 9.78833e-09, Final residual = 9.78833e-09, No Iterations 0
smoothSolver:  Solving for k, Initial residual = 9.8885e-09, Final residual = 9.8885e-09, No Iterations 0
ExecutionTime = 101.19 s  ClockTime = 104 s

Time = 2982

smoothSolver:  Solving for Ux, Initial residual = 7.87031e-09, Final residual = 7.87031e-09, No Iterations 0
smoothSolver:  Solving for Uy, Initial residual = 7.98519e-09, Final residual = 7.98519e-09, No Iterations 0
GAMG:  Solving for p, Initial residual = 1.08265e-07, Final residual = 7.65077e-09, No Iterations 1
time step continuity errors : sum local = 1.52584e-08, global = 2.71848e-10, cumulative = 0.0653415
smoothSolver:  Solving for omega, Initial residual = 9.78851e-09, Final residual = 9.78851e-09, No Iterations 0
smoothSolver:  Solving for k, Initial residual = 9.90052e-09, Final residual = 9.90052e-09, No Iterations 0
ExecutionTime = 101.22 s  ClockTime = 104 s

Time = 2983

smoothSolver:  Solving for Ux, Initial residual = 8.17249e-09, Final residual = 8.17249e-09, No Iterations 0
smoothSolver:  Solving for Uy, Initial residual = 8.66073e-09, Final residual = 8.66073e-09, No Iterations 0
GAMG:  Solving for p, Initial residual = 1.02653e-07, Final residual = 6.79193e-09, No Iterations 1
time step continuity errors : sum local = 1.35456e-08, global = -1.88581e-09, cumulative = 0.0653415
smoothSolver:  Solving for omega, Initial residual = 9.78844e-09, Final residual = 9.78844e-09, No Iterations 0
smoothSolver:  Solving for k, Initial residual = 9.89493e-09, Final residual = 9.89493e-09, No Iterations 0
ExecutionTime = 101.24 s  ClockTime = 104 s

Time = 2984

smoothSolver:  Solving for Ux, Initial residual = 8.60148e-09, Final residual = 8.60148e-09, No Iterations 0
smoothSolver:  Solving for Uy, Initial residual = 9.56887e-09, Final residual = 9.56887e-09, No Iterations 0
GAMG:  Solving for p, Initial residual = 1.1664e-07, Final residual = 6.23198e-09, No Iterations 1
time step continuity errors : sum local = 1.24289e-08, global = -3.13307e-09, cumulative = 0.0653415
smoothSolver:  Solving for omega, Initial residual = 9.78817e-09, Final residual = 9.78817e-09, No Iterations 0
smoothSolver:  Solving for k, Initial residual = 9.87466e-09, Final residual = 9.87466e-09, No Iterations 0
ExecutionTime = 101.27 s  ClockTime = 104 s

Time = 2985

smoothSolver:  Solving for Ux, Initial residual = 8.68428e-09, Final residual = 8.68428e-09, No Iterations 0
smoothSolver:  Solving for Uy, Initial residual = 1.03556e-08, Final residual = 4.19828e-09, No Iterations 1
GAMG:  Solving for p, Initial residual = 2.01577e-07, Final residual = 1.1929e-08, No Iterations 1
time step continuity errors : sum local = 2.37907e-08, global = -3.14817e-09, cumulative = 0.0653415
smoothSolver:  Solving for omega, Initial residual = 9.78749e-09, Final residual = 9.78749e-09, No Iterations 0
smoothSolver:  Solving for k, Initial residual = 9.82096e-09, Final residual = 9.82096e-09, No Iterations 0
ExecutionTime = 101.29 s  ClockTime = 104 s

Time = 2986

smoothSolver:  Solving for Ux, Initial residual = 9.19493e-09, Final residual = 9.19493e-09, No Iterations 0
smoothSolver:  Solving for Uy, Initial residual = 8.18173e-09, Final residual = 8.18173e-09, No Iterations 0
GAMG:  Solving for p, Initial residual = 1.61399e-07, Final residual = 1.22977e-08, No Iterations 1
time step continuity errors : sum local = 2.4526e-08, global = -3.08261e-09, cumulative = 0.0653415
smoothSolver:  Solving for omega, Initial residual = 9.78745e-09, Final residual = 9.78745e-09, No Iterations 0
smoothSolver:  Solving for k, Initial residual = 9.81214e-09, Final residual = 9.81214e-09, No Iterations 0
ExecutionTime = 101.32 s  ClockTime = 104 s

Time = 2987

smoothSolver:  Solving for Ux, Initial residual = 9.54414e-09, Final residual = 9.54414e-09, No Iterations 0
smoothSolver:  Solving for Uy, Initial residual = 8.79998e-09, Final residual = 8.79998e-09, No Iterations 0
GAMG:  Solving for p, Initial residual = 1.47542e-07, Final residual = 1.22462e-08, No Iterations 1
time step continuity errors : sum local = 2.44234e-08, global = -2.16762e-09, cumulative = 0.0653415
smoothSolver:  Solving for omega, Initial residual = 9.78782e-09, Final residual = 9.78782e-09, No Iterations 0
smoothSolver:  Solving for k, Initial residual = 9.83792e-09, Final residual = 9.83792e-09, No Iterations 0
ExecutionTime = 101.35 s  ClockTime = 104 s

Time = 2988

smoothSolver:  Solving for Ux, Initial residual = 9.81387e-09, Final residual = 9.81387e-09, No Iterations 0
smoothSolver:  Solving for Uy, Initial residual = 9.83973e-09, Final residual = 9.83973e-09, No Iterations 0
GAMG:  Solving for p, Initial residual = 1.55913e-07, Final residual = 8.67088e-09, No Iterations 1
time step continuity errors : sum local = 1.72929e-08, global = -8.98315e-10, cumulative = 0.0653415
smoothSolver:  Solving for omega, Initial residual = 9.78831e-09, Final residual = 9.78831e-09, No Iterations 0
smoothSolver:  Solving for k, Initial residual = 9.87644e-09, Final residual = 9.87644e-09, No Iterations 0
ExecutionTime = 101.37 s  ClockTime = 104 s

Time = 2989

smoothSolver:  Solving for Ux, Initial residual = 9.78712e-09, Final residual = 9.78712e-09, No Iterations 0
smoothSolver:  Solving for Uy, Initial residual = 1.07509e-08, Final residual = 4.37877e-09, No Iterations 1
GAMG:  Solving for p, Initial residual = 2.34139e-07, Final residual = 1.45725e-08, No Iterations 1
time step continuity errors : sum local = 2.90628e-08, global = -5.35885e-10, cumulative = 0.0653415
smoothSolver:  Solving for omega, Initial residual = 9.78854e-09, Final residual = 9.78854e-09, No Iterations 0
smoothSolver:  Solving for k, Initial residual = 9.90552e-09, Final residual = 9.90552e-09, No Iterations 0
ExecutionTime = 101.4 s  ClockTime = 104 s

Time = 2990

smoothSolver:  Solving for Ux, Initial residual = 1.04925e-08, Final residual = 4.2543e-09, No Iterations 1
smoothSolver:  Solving for Uy, Initial residual = 8.66933e-09, Final residual = 8.66933e-09, No Iterations 0
GAMG:  Solving for p, Initial residual = 1.32789e-07, Final residual = 1.10614e-08, No Iterations 1
time step continuity errors : sum local = 2.20605e-08, global = -8.56473e-09, cumulative = 0.0653415
smoothSolver:  Solving for omega, Initial residual = 9.78849e-09, Final residual = 9.78849e-09, No Iterations 0
smoothSolver:  Solving for k, Initial residual = 9.9134e-09, Final residual = 9.9134e-09, No Iterations 0
ExecutionTime = 101.42 s  ClockTime = 104 s

Time = 2991

smoothSolver:  Solving for Ux, Initial residual = 7.01535e-09, Final residual = 7.01535e-09, No Iterations 0
smoothSolver:  Solving for Uy, Initial residual = 9.15752e-09, Final residual = 9.15752e-09, No Iterations 0
GAMG:  Solving for p, Initial residual = 1.27264e-07, Final residual = 9.25976e-09, No Iterations 1
time step continuity errors : sum local = 1.84674e-08, global = -7.71143e-09, cumulative = 0.0653415
smoothSolver:  Solving for omega, Initial residual = 9.78848e-09, Final residual = 9.78848e-09, No Iterations 0
smoothSolver:  Solving for k, Initial residual = 9.90834e-09, Final residual = 9.90834e-09, No Iterations 0
ExecutionTime = 101.45 s  ClockTime = 104 s

Time = 2992

smoothSolver:  Solving for Ux, Initial residual = 7.23475e-09, Final residual = 7.23475e-09, No Iterations 0
smoothSolver:  Solving for Uy, Initial residual = 1.01667e-08, Final residual = 3.75407e-09, No Iterations 1
GAMG:  Solving for p, Initial residual = 1.62963e-07, Final residual = 1.31696e-08, No Iterations 1
time step continuity errors : sum local = 2.62651e-08, global = -4.02886e-09, cumulative = 0.0653415
smoothSolver:  Solving for omega, Initial residual = 9.78803e-09, Final residual = 9.78803e-09, No Iterations 0
smoothSolver:  Solving for k, Initial residual = 9.85685e-09, Final residual = 9.85685e-09, No Iterations 0
ExecutionTime = 101.48 s  ClockTime = 104 s

Time = 2993

smoothSolver:  Solving for Ux, Initial residual = 7.47614e-09, Final residual = 7.47614e-09, No Iterations 0
smoothSolver:  Solving for Uy, Initial residual = 7.90752e-09, Final residual = 7.90752e-09, No Iterations 0
GAMG:  Solving for p, Initial residual = 1.06325e-07, Final residual = 7.77164e-09, No Iterations 1
time step continuity errors : sum local = 1.54995e-08, global = -2.07365e-10, cumulative = 0.0653415
smoothSolver:  Solving for omega, Initial residual = 9.78772e-09, Final residual = 9.78772e-09, No Iterations 0
smoothSolver:  Solving for k, Initial residual = 9.83254e-09, Final residual = 9.83254e-09, No Iterations 0
ExecutionTime = 101.5 s  ClockTime = 104 s

Time = 2994

smoothSolver:  Solving for Ux, Initial residual = 7.95903e-09, Final residual = 7.95903e-09, No Iterations 0
smoothSolver:  Solving for Uy, Initial residual = 8.61078e-09, Final residual = 8.61078e-09, No Iterations 0
GAMG:  Solving for p, Initial residual = 9.44954e-08, Final residual = 9.44954e-08, No Iterations 0
time step continuity errors : sum local = 1.88458e-07, global = 3.66852e-09, cumulative = 0.0653415
smoothSolver:  Solving for omega, Initial residual = 9.78784e-09, Final residual = 9.78784e-09, No Iterations 0
smoothSolver:  Solving for k, Initial residual = 9.85006e-09, Final residual = 9.85006e-09, No Iterations 0
ExecutionTime = 101.53 s  ClockTime = 104 s

Time = 2995

smoothSolver:  Solving for Ux, Initial residual = 8.19692e-09, Final residual = 8.19692e-09, No Iterations 0
smoothSolver:  Solving for Uy, Initial residual = 8.98711e-09, Final residual = 8.98711e-09, No Iterations 0
GAMG:  Solving for p, Initial residual = 1.37439e-07, Final residual = 9.17174e-09, No Iterations 1
time step continuity errors : sum local = 1.82918e-08, global = 5.11763e-09, cumulative = 0.0653415
smoothSolver:  Solving for omega, Initial residual = 9.78805e-09, Final residual = 9.78805e-09, No Iterations 0
smoothSolver:  Solving for k, Initial residual = 9.84226e-09, Final residual = 9.84226e-09, No Iterations 0
ExecutionTime = 101.55 s  ClockTime = 104 s

Time = 2996

smoothSolver:  Solving for Ux, Initial residual = 8.21736e-09, Final residual = 8.21736e-09, No Iterations 0
smoothSolver:  Solving for Uy, Initial residual = 9.60315e-09, Final residual = 9.60315e-09, No Iterations 0
GAMG:  Solving for p, Initial residual = 1.24927e-07, Final residual = 9.69125e-09, No Iterations 1
time step continuity errors : sum local = 1.93279e-08, global = 5.53602e-09, cumulative = 0.0653415
smoothSolver:  Solving for omega, Initial residual = 9.78837e-09, Final residual = 9.78837e-09, No Iterations 0
smoothSolver:  Solving for k, Initial residual = 9.86231e-09, Final residual = 9.86231e-09, No Iterations 0
ExecutionTime = 101.58 s  ClockTime = 104 s

Time = 2997

smoothSolver:  Solving for Ux, Initial residual = 8.18078e-09, Final residual = 8.18078e-09, No Iterations 0
smoothSolver:  Solving for Uy, Initial residual = 1.03533e-08, Final residual = 4.36645e-09, No Iterations 1
GAMG:  Solving for p, Initial residual = 1.76119e-07, Final residual = 1.2803e-08, No Iterations 1
time step continuity errors : sum local = 2.55338e-08, global = 4.21944e-09, cumulative = 0.0653415
smoothSolver:  Solving for omega, Initial residual = 9.7885e-09, Final residual = 9.7885e-09, No Iterations 0
smoothSolver:  Solving for k, Initial residual = 9.86689e-09, Final residual = 9.86689e-09, No Iterations 0
ExecutionTime = 101.61 s  ClockTime = 104 s

Time = 2998

smoothSolver:  Solving for Ux, Initial residual = 8.73353e-09, Final residual = 8.73353e-09, No Iterations 0
smoothSolver:  Solving for Uy, Initial residual = 8.10566e-09, Final residual = 8.10566e-09, No Iterations 0
GAMG:  Solving for p, Initial residual = 1.23553e-07, Final residual = 1.1864e-08, No Iterations 1
time step continuity errors : sum local = 2.36612e-08, global = 2.37489e-09, cumulative = 0.0653415
smoothSolver:  Solving for omega, Initial residual = 9.78855e-09, Final residual = 9.78855e-09, No Iterations 0
smoothSolver:  Solving for k, Initial residual = 9.88137e-09, Final residual = 9.88137e-09, No Iterations 0
ExecutionTime = 101.63 s  ClockTime = 104 s

Time = 2999

smoothSolver:  Solving for Ux, Initial residual = 8.84119e-09, Final residual = 8.84119e-09, No Iterations 0
smoothSolver:  Solving for Uy, Initial residual = 8.53997e-09, Final residual = 8.53997e-09, No Iterations 0
GAMG:  Solving for p, Initial residual = 1.29606e-07, Final residual = 8.67556e-09, No Iterations 1
time step continuity errors : sum local = 1.73022e-08, global = 3.67501e-10, cumulative = 0.0653415
smoothSolver:  Solving for omega, Initial residual = 9.78859e-09, Final residual = 9.78859e-09, No Iterations 0
smoothSolver:  Solving for k, Initial residual = 9.88947e-09, Final residual = 9.88947e-09, No Iterations 0
ExecutionTime = 101.66 s  ClockTime = 104 s

Time = 3000

smoothSolver:  Solving for Ux, Initial residual = 8.93993e-09, Final residual = 8.93993e-09, No Iterations 0
smoothSolver:  Solving for Uy, Initial residual = 9.27652e-09, Final residual = 9.27652e-09, No Iterations 0
GAMG:  Solving for p, Initial residual = 1.36547e-07, Final residual = 7.70745e-09, No Iterations 1
time step continuity errors : sum local = 1.53715e-08, global = -7.22378e-10, cumulative = 0.0653415
smoothSolver:  Solving for omega, Initial residual = 9.78833e-09, Final residual = 9.78833e-09, No Iterations 0
smoothSolver:  Solving for k, Initial residual = 9.88943e-09, Final residual = 9.88943e-09, No Iterations 0
ExecutionTime = 101.81 s  ClockTime = 104 s

End

