/*---------------------------------------------------------------------------*\
| =========                 |                                                 |
| \\      /  F ield         | OpenFOAM: The Open Source CFD Toolbox           |
|  \\    /   O peration     | Version:  v1912                                 |
|   \\  /    A nd           | Website:  www.openfoam.com                      |
|    \\/     M anipulation  |                                                 |
\*---------------------------------------------------------------------------*/
Build  : _f3950763fe-20191219 OPENFOAM=1912
Arch   : "LSB;label=32;scalar=64"
Exec   : reconstructPar
Date   : Nov 14 2020
Time   : 01:15:00
Host   : cnode20
PID    : 21044
I/O    : uncollated
Case   : /home/mech432/scr0/solved/finalReport/wingMotion/wingMotion2D_pimpleFoam
nProcs : 1
trapFpe: Floating point exception trapping enabled (FOAM_SIGFPE).
fileModificationChecking : Monitoring run-time modified files using timeStampMaster (fileModificationSkew 10)
allowSystemOperations : Allowing user-supplied system call operations

// * * * * * * * * * * * * * * * * * * * * * * * * * * * * * * * * * * * * * //
Create time



Reconstructing fields for mesh region0

Time = 0.01

Reconstructing FV fields

    Reconstructing volScalarFields

        k
        nut
        omega
        p

    Reconstructing volVectorFields

        U

    Reconstructing surfaceScalarFields

        meshPhi
        phi

    Reconstructing surfaceVectorFields

        Uf

Reconstructing point fields

    Reconstructing pointVectorFields

        pointDisplacement

No lagrangian fields

No FA fields

Time = 0.02

Reconstructing FV fields

    Reconstructing volScalarFields

        k
        nut
        omega
        p

    Reconstructing volVectorFields

        U

    Reconstructing surfaceScalarFields

        meshPhi
        phi

    Reconstructing surfaceVectorFields

        Uf

Reconstructing point fields

    Reconstructing pointVectorFields

        pointDisplacement

No lagrangian fields

No FA fields

Time = 0.03

Reconstructing FV fields

    Reconstructing volScalarFields

        k
        nut
        omega
        p

    Reconstructing volVectorFields

        U

    Reconstructing surfaceScalarFields

        meshPhi
        phi

    Reconstructing surfaceVectorFields

        Uf

Reconstructing point fields

    Reconstructing pointVectorFields

        pointDisplacement

No lagrangian fields

No FA fields

Time = 0.04

Reconstructing FV fields

    Reconstructing volScalarFields

        k
        nut
        omega
        p

    Reconstructing volVectorFields

        U

    Reconstructing surfaceScalarFields

        meshPhi
        phi

    Reconstructing surfaceVectorFields

        Uf

Reconstructing point fields

    Reconstructing pointVectorFields

        pointDisplacement

No lagrangian fields

No FA fields

Time = 0.05

Reconstructing FV fields

    Reconstructing volScalarFields

        k
        nut
        omega
        p

    Reconstructing volVectorFields

        U

    Reconstructing surfaceScalarFields

        meshPhi
        phi

    Reconstructing surfaceVectorFields

        Uf

Reconstructing point fields

    Reconstructing pointVectorFields

        pointDisplacement

No lagrangian fields

No FA fields

Time = 0.06

Reconstructing FV fields

    Reconstructing volScalarFields

        k
        nut
        omega
        p

    Reconstructing volVectorFields

        U

    Reconstructing surfaceScalarFields

        meshPhi
        phi

    Reconstructing surfaceVectorFields

        Uf

Reconstructing point fields

    Reconstructing pointVectorFields

        pointDisplacement

No lagrangian fields

No FA fields

Time = 0.07

Reconstructing FV fields

    Reconstructing volScalarFields

        k
        nut
        omega
        p

    Reconstructing volVectorFields

        U

    Reconstructing surfaceScalarFields

        meshPhi
        phi

    Reconstructing surfaceVectorFields

        Uf

Reconstructing point fields

    Reconstructing pointVectorFields

        pointDisplacement

No lagrangian fields

No FA fields

Time = 0.08

Reconstructing FV fields

    Reconstructing volScalarFields

        k
        nut
        omega
        p

    Reconstructing volVectorFields

        U

    Reconstructing surfaceScalarFields

        meshPhi
        phi

    Reconstructing surfaceVectorFields

        Uf

Reconstructing point fields

    Reconstructing pointVectorFields

        pointDisplacement

No lagrangian fields

No FA fields

Time = 0.09

Reconstructing FV fields

    Reconstructing volScalarFields

        k
        nut
        omega
        p

    Reconstructing volVectorFields

        U

    Reconstructing surfaceScalarFields

        meshPhi
        phi

    Reconstructing surfaceVectorFields

        Uf

Reconstructing point fields

    Reconstructing pointVectorFields

        pointDisplacement

No lagrangian fields

No FA fields

Time = 0.1

Reconstructing FV fields

    Reconstructing volScalarFields

        k
        nut
        omega
        p

    Reconstructing volVectorFields

        U

    Reconstructing surfaceScalarFields

        meshPhi
        phi

    Reconstructing surfaceVectorFields

        Uf

Reconstructing point fields

    Reconstructing pointVectorFields

        pointDisplacement

No lagrangian fields

No FA fields

Time = 0.11

Reconstructing FV fields

    Reconstructing volScalarFields

        k
        nut
        omega
        p

    Reconstructing volVectorFields

        U

    Reconstructing surfaceScalarFields

        meshPhi
        phi

    Reconstructing surfaceVectorFields

        Uf

Reconstructing point fields

    Reconstructing pointVectorFields

        pointDisplacement

No lagrangian fields

No FA fields

Time = 0.12

Reconstructing FV fields

    Reconstructing volScalarFields

        k
        nut
        omega
        p

    Reconstructing volVectorFields

        U

    Reconstructing surfaceScalarFields

        meshPhi
        phi

    Reconstructing surfaceVectorFields

        Uf

Reconstructing point fields

    Reconstructing pointVectorFields

        pointDisplacement

No lagrangian fields

No FA fields

Time = 0.13

Reconstructing FV fields

    Reconstructing volScalarFields

        k
        nut
        omega
        p

    Reconstructing volVectorFields

        U

    Reconstructing surfaceScalarFields

        meshPhi
        phi

    Reconstructing surfaceVectorFields

        Uf

Reconstructing point fields

    Reconstructing pointVectorFields

        pointDisplacement

No lagrangian fields

No FA fields

Time = 0.14

Reconstructing FV fields

    Reconstructing volScalarFields

        k
        nut
        omega
        p

    Reconstructing volVectorFields

        U

    Reconstructing surfaceScalarFields

        meshPhi
        phi

    Reconstructing surfaceVectorFields

        Uf

Reconstructing point fields

    Reconstructing pointVectorFields

        pointDisplacement

No lagrangian fields

No FA fields

Time = 0.15

Reconstructing FV fields

    Reconstructing volScalarFields

        k
        nut
        omega
        p

    Reconstructing volVectorFields

        U

    Reconstructing surfaceScalarFields

        meshPhi
        phi

    Reconstructing surfaceVectorFields

        Uf

Reconstructing point fields

    Reconstructing pointVectorFields

        pointDisplacement

No lagrangian fields

No FA fields

Time = 0.16

Reconstructing FV fields

    Reconstructing volScalarFields

        k
        nut
        omega
        p

    Reconstructing volVectorFields

        U

    Reconstructing surfaceScalarFields

        meshPhi
        phi

    Reconstructing surfaceVectorFields

        Uf

Reconstructing point fields

    Reconstructing pointVectorFields

        pointDisplacement

No lagrangian fields

No FA fields

Time = 0.17

Reconstructing FV fields

    Reconstructing volScalarFields

        k
        nut
        omega
        p

    Reconstructing volVectorFields

        U

    Reconstructing surfaceScalarFields

        meshPhi
        phi

    Reconstructing surfaceVectorFields

        Uf

Reconstructing point fields

    Reconstructing pointVectorFields

        pointDisplacement

No lagrangian fields

No FA fields

Time = 0.18

Reconstructing FV fields

    Reconstructing volScalarFields

        k
        nut
        omega
        p

    Reconstructing volVectorFields

        U

    Reconstructing surfaceScalarFields

        meshPhi
        phi

    Reconstructing surfaceVectorFields

        Uf

Reconstructing point fields

    Reconstructing pointVectorFields

        pointDisplacement

No lagrangian fields

No FA fields

Time = 0.19

Reconstructing FV fields

    Reconstructing volScalarFields

        k
        nut
        omega
        p

    Reconstructing volVectorFields

        U

    Reconstructing surfaceScalarFields

        meshPhi
        phi

    Reconstructing surfaceVectorFields

        Uf

Reconstructing point fields

    Reconstructing pointVectorFields

        pointDisplacement

No lagrangian fields

No FA fields

Time = 0.2

Reconstructing FV fields

    Reconstructing volScalarFields

        k
        nut
        omega
        p

    Reconstructing volVectorFields

        U

    Reconstructing surfaceScalarFields

        meshPhi
        phi

    Reconstructing surfaceVectorFields

        Uf

Reconstructing point fields

    Reconstructing pointVectorFields

        pointDisplacement

No lagrangian fields

No FA fields

Time = 0.21

Reconstructing FV fields

    Reconstructing volScalarFields

        k
        nut
        omega
        p

    Reconstructing volVectorFields

        U

    Reconstructing surfaceScalarFields

        meshPhi
        phi

    Reconstructing surfaceVectorFields

        Uf

Reconstructing point fields

    Reconstructing pointVectorFields

        pointDisplacement

No lagrangian fields

No FA fields

Time = 0.22

Reconstructing FV fields

    Reconstructing volScalarFields

        k
        nut
        omega
        p

    Reconstructing volVectorFields

        U

    Reconstructing surfaceScalarFields

        meshPhi
        phi

    Reconstructing surfaceVectorFields

        Uf

Reconstructing point fields

    Reconstructing pointVectorFields

        pointDisplacement

No lagrangian fields

No FA fields

Time = 0.23

Reconstructing FV fields

    Reconstructing volScalarFields

        k
        nut
        omega
        p

    Reconstructing volVectorFields

        U

    Reconstructing surfaceScalarFields

        meshPhi
        phi

    Reconstructing surfaceVectorFields

        Uf

Reconstructing point fields

    Reconstructing pointVectorFields

        pointDisplacement

No lagrangian fields

No FA fields

Time = 0.24

Reconstructing FV fields

    Reconstructing volScalarFields

        k
        nut
        omega
        p

    Reconstructing volVectorFields

        U

    Reconstructing surfaceScalarFields

        meshPhi
        phi

    Reconstructing surfaceVectorFields

        Uf

Reconstructing point fields

    Reconstructing pointVectorFields

        pointDisplacement

No lagrangian fields

No FA fields

Time = 0.25

Reconstructing FV fields

    Reconstructing volScalarFields

        k
        nut
        omega
        p

    Reconstructing volVectorFields

        U

    Reconstructing surfaceScalarFields

        meshPhi
        phi

    Reconstructing surfaceVectorFields

        Uf

Reconstructing point fields

    Reconstructing pointVectorFields

        pointDisplacement

No lagrangian fields

No FA fields

Time = 0.26

Reconstructing FV fields

    Reconstructing volScalarFields

        k
        nut
        omega
        p

    Reconstructing volVectorFields

        U

    Reconstructing surfaceScalarFields

        meshPhi
        phi

    Reconstructing surfaceVectorFields

        Uf

Reconstructing point fields

    Reconstructing pointVectorFields

        pointDisplacement

No lagrangian fields

No FA fields

Time = 0.27

Reconstructing FV fields

    Reconstructing volScalarFields

        k
        nut
        omega
        p

    Reconstructing volVectorFields

        U

    Reconstructing surfaceScalarFields

        meshPhi
        phi

    Reconstructing surfaceVectorFields

        Uf

Reconstructing point fields

    Reconstructing pointVectorFields

        pointDisplacement

No lagrangian fields

No FA fields

Time = 0.28

Reconstructing FV fields

    Reconstructing volScalarFields

        k
        nut
        omega
        p

    Reconstructing volVectorFields

        U

    Reconstructing surfaceScalarFields

        meshPhi
        phi

    Reconstructing surfaceVectorFields

        Uf

Reconstructing point fields

    Reconstructing pointVectorFields

        pointDisplacement

No lagrangian fields

No FA fields

Time = 0.29

Reconstructing FV fields

    Reconstructing volScalarFields

        k
        nut
        omega
        p

    Reconstructing volVectorFields

        U

    Reconstructing surfaceScalarFields

        meshPhi
        phi

    Reconstructing surfaceVectorFields

        Uf

Reconstructing point fields

    Reconstructing pointVectorFields

        pointDisplacement

No lagrangian fields

No FA fields

Time = 0.3

Reconstructing FV fields

    Reconstructing volScalarFields

        k
        nut
        omega
        p

    Reconstructing volVectorFields

        U

    Reconstructing surfaceScalarFields

        meshPhi
        phi

    Reconstructing surfaceVectorFields

        Uf

Reconstructing point fields

    Reconstructing pointVectorFields

        pointDisplacement

No lagrangian fields

No FA fields

Time = 0.31

Reconstructing FV fields

    Reconstructing volScalarFields

        k
        nut
        omega
        p

    Reconstructing volVectorFields

        U

    Reconstructing surfaceScalarFields

        meshPhi
        phi

    Reconstructing surfaceVectorFields

        Uf

Reconstructing point fields

    Reconstructing pointVectorFields

        pointDisplacement

No lagrangian fields

No FA fields

Time = 0.32

Reconstructing FV fields

    Reconstructing volScalarFields

        k
        nut
        omega
        p

    Reconstructing volVectorFields

        U

    Reconstructing surfaceScalarFields

        meshPhi
        phi

    Reconstructing surfaceVectorFields

        Uf

Reconstructing point fields

    Reconstructing pointVectorFields

        pointDisplacement

No lagrangian fields

No FA fields

Time = 0.33

Reconstructing FV fields

    Reconstructing volScalarFields

        k
        nut
        omega
        p

    Reconstructing volVectorFields

        U

    Reconstructing surfaceScalarFields

        meshPhi
        phi

    Reconstructing surfaceVectorFields

        Uf

Reconstructing point fields

    Reconstructing pointVectorFields

        pointDisplacement

No lagrangian fields

No FA fields

Time = 0.34

Reconstructing FV fields

    Reconstructing volScalarFields

        k
        nut
        omega
        p

    Reconstructing volVectorFields

        U

    Reconstructing surfaceScalarFields

        meshPhi
        phi

    Reconstructing surfaceVectorFields

        Uf

Reconstructing point fields

    Reconstructing pointVectorFields

        pointDisplacement

No lagrangian fields

No FA fields

Time = 0.35

Reconstructing FV fields

    Reconstructing volScalarFields

        k
        nut
        omega
        p

    Reconstructing volVectorFields

        U

    Reconstructing surfaceScalarFields

        meshPhi
        phi

    Reconstructing surfaceVectorFields

        Uf

Reconstructing point fields

    Reconstructing pointVectorFields

        pointDisplacement

No lagrangian fields

No FA fields

Time = 0.36

Reconstructing FV fields

    Reconstructing volScalarFields

        k
        nut
        omega
        p

    Reconstructing volVectorFields

        U

    Reconstructing surfaceScalarFields

        meshPhi
        phi

    Reconstructing surfaceVectorFields

        Uf

Reconstructing point fields

    Reconstructing pointVectorFields

        pointDisplacement

No lagrangian fields

No FA fields

Time = 0.37

Reconstructing FV fields

    Reconstructing volScalarFields

        k
        nut
        omega
        p

    Reconstructing volVectorFields

        U

    Reconstructing surfaceScalarFields

        meshPhi
        phi

    Reconstructing surfaceVectorFields

        Uf

Reconstructing point fields

    Reconstructing pointVectorFields

        pointDisplacement

No lagrangian fields

No FA fields

Time = 0.38

Reconstructing FV fields

    Reconstructing volScalarFields

        k
        nut
        omega
        p

    Reconstructing volVectorFields

        U

    Reconstructing surfaceScalarFields

        meshPhi
        phi

    Reconstructing surfaceVectorFields

        Uf

Reconstructing point fields

    Reconstructing pointVectorFields

        pointDisplacement

No lagrangian fields

No FA fields

Time = 0.39

Reconstructing FV fields

    Reconstructing volScalarFields

        k
        nut
        omega
        p

    Reconstructing volVectorFields

        U

    Reconstructing surfaceScalarFields

        meshPhi
        phi

    Reconstructing surfaceVectorFields

        Uf

Reconstructing point fields

    Reconstructing pointVectorFields

        pointDisplacement

No lagrangian fields

No FA fields

Time = 0.4

Reconstructing FV fields

    Reconstructing volScalarFields

        k
        nut
        omega
        p

    Reconstructing volVectorFields

        U

    Reconstructing surfaceScalarFields

        meshPhi
        phi

    Reconstructing surfaceVectorFields

        Uf

Reconstructing point fields

    Reconstructing pointVectorFields

        pointDisplacement

No lagrangian fields

No FA fields

Time = 0.41

Reconstructing FV fields

    Reconstructing volScalarFields

        k
        nut
        omega
        p

    Reconstructing volVectorFields

        U

    Reconstructing surfaceScalarFields

        meshPhi
        phi

    Reconstructing surfaceVectorFields

        Uf

Reconstructing point fields

    Reconstructing pointVectorFields

        pointDisplacement

No lagrangian fields

No FA fields

Time = 0.42

Reconstructing FV fields

    Reconstructing volScalarFields

        k
        nut
        omega
        p

    Reconstructing volVectorFields

        U

    Reconstructing surfaceScalarFields

        meshPhi
        phi

    Reconstructing surfaceVectorFields

        Uf

Reconstructing point fields

    Reconstructing pointVectorFields

        pointDisplacement

No lagrangian fields

No FA fields

Time = 0.43

Reconstructing FV fields

    Reconstructing volScalarFields

        k
        nut
        omega
        p

    Reconstructing volVectorFields

        U

    Reconstructing surfaceScalarFields

        meshPhi
        phi

    Reconstructing surfaceVectorFields

        Uf

Reconstructing point fields

    Reconstructing pointVectorFields

        pointDisplacement

No lagrangian fields

No FA fields

Time = 0.44

Reconstructing FV fields

    Reconstructing volScalarFields

        k
        nut
        omega
        p

    Reconstructing volVectorFields

        U

    Reconstructing surfaceScalarFields

        meshPhi
        phi

    Reconstructing surfaceVectorFields

        Uf

Reconstructing point fields

    Reconstructing pointVectorFields

        pointDisplacement

No lagrangian fields

No FA fields

Time = 0.45

Reconstructing FV fields

    Reconstructing volScalarFields

        k
        nut
        omega
        p

    Reconstructing volVectorFields

        U

    Reconstructing surfaceScalarFields

        meshPhi
        phi

    Reconstructing surfaceVectorFields

        Uf

Reconstructing point fields

    Reconstructing pointVectorFields

        pointDisplacement

No lagrangian fields

No FA fields

Time = 0.46

Reconstructing FV fields

    Reconstructing volScalarFields

        k
        nut
        omega
        p

    Reconstructing volVectorFields

        U

    Reconstructing surfaceScalarFields

        meshPhi
        phi

    Reconstructing surfaceVectorFields

        Uf

Reconstructing point fields

    Reconstructing pointVectorFields

        pointDisplacement

No lagrangian fields

No FA fields

Time = 0.47

Reconstructing FV fields

    Reconstructing volScalarFields

        k
        nut
        omega
        p

    Reconstructing volVectorFields

        U

    Reconstructing surfaceScalarFields

        meshPhi
        phi

    Reconstructing surfaceVectorFields

        Uf

Reconstructing point fields

    Reconstructing pointVectorFields

        pointDisplacement

No lagrangian fields

No FA fields

Time = 0.48

Reconstructing FV fields

    Reconstructing volScalarFields

        k
        nut
        omega
        p

    Reconstructing volVectorFields

        U

    Reconstructing surfaceScalarFields

        meshPhi
        phi

    Reconstructing surfaceVectorFields

        Uf

Reconstructing point fields

    Reconstructing pointVectorFields

        pointDisplacement

No lagrangian fields

No FA fields

Time = 0.49

Reconstructing FV fields

    Reconstructing volScalarFields

        k
        nut
        omega
        p

    Reconstructing volVectorFields

        U

    Reconstructing surfaceScalarFields

        meshPhi
        phi

    Reconstructing surfaceVectorFields

        Uf

Reconstructing point fields

    Reconstructing pointVectorFields

        pointDisplacement

No lagrangian fields

No FA fields

Time = 0.5

Reconstructing FV fields

    Reconstructing volScalarFields

        k
        nut
        omega
        p

    Reconstructing volVectorFields

        U

    Reconstructing surfaceScalarFields

        meshPhi
        phi

    Reconstructing surfaceVectorFields

        Uf

Reconstructing point fields

    Reconstructing pointVectorFields

        pointDisplacement

No lagrangian fields

No FA fields

Time = 0.51

Reconstructing FV fields

    Reconstructing volScalarFields

        k
        nut
        omega
        p

    Reconstructing volVectorFields

        U

    Reconstructing surfaceScalarFields

        meshPhi
        phi

    Reconstructing surfaceVectorFields

        Uf

Reconstructing point fields

    Reconstructing pointVectorFields

        pointDisplacement

No lagrangian fields

No FA fields

Time = 0.52

Reconstructing FV fields

    Reconstructing volScalarFields

        k
        nut
        omega
        p

    Reconstructing volVectorFields

        U

    Reconstructing surfaceScalarFields

        meshPhi
        phi

    Reconstructing surfaceVectorFields

        Uf

Reconstructing point fields

    Reconstructing pointVectorFields

        pointDisplacement

No lagrangian fields

No FA fields

Time = 0.53

Reconstructing FV fields

    Reconstructing volScalarFields

        k
        nut
        omega
        p

    Reconstructing volVectorFields

        U

    Reconstructing surfaceScalarFields

        meshPhi
        phi

    Reconstructing surfaceVectorFields

        Uf

Reconstructing point fields

    Reconstructing pointVectorFields

        pointDisplacement

No lagrangian fields

No FA fields

Time = 0.54

Reconstructing FV fields

    Reconstructing volScalarFields

        k
        nut
        omega
        p

    Reconstructing volVectorFields

        U

    Reconstructing surfaceScalarFields

        meshPhi
        phi

    Reconstructing surfaceVectorFields

        Uf

Reconstructing point fields

    Reconstructing pointVectorFields

        pointDisplacement

No lagrangian fields

No FA fields

Time = 0.55

Reconstructing FV fields

    Reconstructing volScalarFields

        k
        nut
        omega
        p

    Reconstructing volVectorFields

        U

    Reconstructing surfaceScalarFields

        meshPhi
        phi

    Reconstructing surfaceVectorFields

        Uf

Reconstructing point fields

    Reconstructing pointVectorFields

        pointDisplacement

No lagrangian fields

No FA fields

Time = 0.56

Reconstructing FV fields

    Reconstructing volScalarFields

        k
        nut
        omega
        p

    Reconstructing volVectorFields

        U

    Reconstructing surfaceScalarFields

        meshPhi
        phi

    Reconstructing surfaceVectorFields

        Uf

Reconstructing point fields

    Reconstructing pointVectorFields

        pointDisplacement

No lagrangian fields

No FA fields

Time = 0.57

Reconstructing FV fields

    Reconstructing volScalarFields

        k
        nut
        omega
        p

    Reconstructing volVectorFields

        U

    Reconstructing surfaceScalarFields

        meshPhi
        phi

    Reconstructing surfaceVectorFields

        Uf

Reconstructing point fields

    Reconstructing pointVectorFields

        pointDisplacement

No lagrangian fields

No FA fields

Time = 0.58

Reconstructing FV fields

    Reconstructing volScalarFields

        k
        nut
        omega
        p

    Reconstructing volVectorFields

        U

    Reconstructing surfaceScalarFields

        meshPhi
        phi

    Reconstructing surfaceVectorFields

        Uf

Reconstructing point fields

    Reconstructing pointVectorFields

        pointDisplacement

No lagrangian fields

No FA fields

Time = 0.59

Reconstructing FV fields

    Reconstructing volScalarFields

        k
        nut
        omega
        p

    Reconstructing volVectorFields

        U

    Reconstructing surfaceScalarFields

        meshPhi
        phi

    Reconstructing surfaceVectorFields

        Uf

Reconstructing point fields

    Reconstructing pointVectorFields

        pointDisplacement

No lagrangian fields

No FA fields

Time = 0.6

Reconstructing FV fields

    Reconstructing volScalarFields

        k
        nut
        omega
        p

    Reconstructing volVectorFields

        U

    Reconstructing surfaceScalarFields

        meshPhi
        phi

    Reconstructing surfaceVectorFields

        Uf

Reconstructing point fields

    Reconstructing pointVectorFields

        pointDisplacement

No lagrangian fields

No FA fields

Time = 0.61

Reconstructing FV fields

    Reconstructing volScalarFields

        k
        nut
        omega
        p

    Reconstructing volVectorFields

        U

    Reconstructing surfaceScalarFields

        meshPhi
        phi

    Reconstructing surfaceVectorFields

        Uf

Reconstructing point fields

    Reconstructing pointVectorFields

        pointDisplacement

No lagrangian fields

No FA fields

Time = 0.62

Reconstructing FV fields

    Reconstructing volScalarFields

        k
        nut
        omega
        p

    Reconstructing volVectorFields

        U

    Reconstructing surfaceScalarFields

        meshPhi
        phi

    Reconstructing surfaceVectorFields

        Uf

Reconstructing point fields

    Reconstructing pointVectorFields

        pointDisplacement

No lagrangian fields

No FA fields

Time = 0.63

Reconstructing FV fields

    Reconstructing volScalarFields

        k
        nut
        omega
        p

    Reconstructing volVectorFields

        U

    Reconstructing surfaceScalarFields

        meshPhi
        phi

    Reconstructing surfaceVectorFields

        Uf

Reconstructing point fields

    Reconstructing pointVectorFields

        pointDisplacement

No lagrangian fields

No FA fields

Time = 0.64

Reconstructing FV fields

    Reconstructing volScalarFields

        k
        nut
        omega
        p

    Reconstructing volVectorFields

        U

    Reconstructing surfaceScalarFields

        meshPhi
        phi

    Reconstructing surfaceVectorFields

        Uf

Reconstructing point fields

    Reconstructing pointVectorFields

        pointDisplacement

No lagrangian fields

No FA fields

Time = 0.65

Reconstructing FV fields

    Reconstructing volScalarFields

        k
        nut
        omega
        p

    Reconstructing volVectorFields

        U

    Reconstructing surfaceScalarFields

        meshPhi
        phi

    Reconstructing surfaceVectorFields

        Uf

Reconstructing point fields

    Reconstructing pointVectorFields

        pointDisplacement

No lagrangian fields

No FA fields

Time = 0.66

Reconstructing FV fields

    Reconstructing volScalarFields

        k
        nut
        omega
        p

    Reconstructing volVectorFields

        U

    Reconstructing surfaceScalarFields

        meshPhi
        phi

    Reconstructing surfaceVectorFields

        Uf

Reconstructing point fields

    Reconstructing pointVectorFields

        pointDisplacement

No lagrangian fields

No FA fields

Time = 0.67

Reconstructing FV fields

    Reconstructing volScalarFields

        k
        nut
        omega
        p

    Reconstructing volVectorFields

        U

    Reconstructing surfaceScalarFields

        meshPhi
        phi

    Reconstructing surfaceVectorFields

        Uf

Reconstructing point fields

    Reconstructing pointVectorFields

        pointDisplacement

No lagrangian fields

No FA fields

Time = 0.68

Reconstructing FV fields

    Reconstructing volScalarFields

        k
        nut
        omega
        p

    Reconstructing volVectorFields

        U

    Reconstructing surfaceScalarFields

        meshPhi
        phi

    Reconstructing surfaceVectorFields

        Uf

Reconstructing point fields

    Reconstructing pointVectorFields

        pointDisplacement

No lagrangian fields

No FA fields

Time = 0.69

Reconstructing FV fields

    Reconstructing volScalarFields

        k
        nut
        omega
        p

    Reconstructing volVectorFields

        U

    Reconstructing surfaceScalarFields

        meshPhi
        phi

    Reconstructing surfaceVectorFields

        Uf

Reconstructing point fields

    Reconstructing pointVectorFields

        pointDisplacement

No lagrangian fields

No FA fields

Time = 0.7

Reconstructing FV fields

    Reconstructing volScalarFields

        k
        nut
        omega
        p

    Reconstructing volVectorFields

        U

    Reconstructing surfaceScalarFields

        meshPhi
        phi

    Reconstructing surfaceVectorFields

        Uf

Reconstructing point fields

    Reconstructing pointVectorFields

        pointDisplacement

No lagrangian fields

No FA fields

Time = 0.71

Reconstructing FV fields

    Reconstructing volScalarFields

        k
        nut
        omega
        p

    Reconstructing volVectorFields

        U

    Reconstructing surfaceScalarFields

        meshPhi
        phi

    Reconstructing surfaceVectorFields

        Uf

Reconstructing point fields

    Reconstructing pointVectorFields

        pointDisplacement

No lagrangian fields

No FA fields

Time = 0.72

Reconstructing FV fields

    Reconstructing volScalarFields

        k
        nut
        omega
        p

    Reconstructing volVectorFields

        U

    Reconstructing surfaceScalarFields

        meshPhi
        phi

    Reconstructing surfaceVectorFields

        Uf

Reconstructing point fields

    Reconstructing pointVectorFields

        pointDisplacement

No lagrangian fields

No FA fields

Time = 0.73

Reconstructing FV fields

    Reconstructing volScalarFields

        k
        nut
        omega
        p

    Reconstructing volVectorFields

        U

    Reconstructing surfaceScalarFields

        meshPhi
        phi

    Reconstructing surfaceVectorFields

        Uf

Reconstructing point fields

    Reconstructing pointVectorFields

        pointDisplacement

No lagrangian fields

No FA fields

Time = 0.74

Reconstructing FV fields

    Reconstructing volScalarFields

        k
        nut
        omega
        p

    Reconstructing volVectorFields

        U

    Reconstructing surfaceScalarFields

        meshPhi
        phi

    Reconstructing surfaceVectorFields

        Uf

Reconstructing point fields

    Reconstructing pointVectorFields

        pointDisplacement

No lagrangian fields

No FA fields

Time = 0.75

Reconstructing FV fields

    Reconstructing volScalarFields

        k
        nut
        omega
        p

    Reconstructing volVectorFields

        U

    Reconstructing surfaceScalarFields

        meshPhi
        phi

    Reconstructing surfaceVectorFields

        Uf

Reconstructing point fields

    Reconstructing pointVectorFields

        pointDisplacement

No lagrangian fields

No FA fields

Time = 0.76

Reconstructing FV fields

    Reconstructing volScalarFields

        k
        nut
        omega
        p

    Reconstructing volVectorFields

        U

    Reconstructing surfaceScalarFields

        meshPhi
        phi

    Reconstructing surfaceVectorFields

        Uf

Reconstructing point fields

    Reconstructing pointVectorFields

        pointDisplacement

No lagrangian fields

No FA fields

Time = 0.77

Reconstructing FV fields

    Reconstructing volScalarFields

        k
        nut
        omega
        p

    Reconstructing volVectorFields

        U

    Reconstructing surfaceScalarFields

        meshPhi
        phi

    Reconstructing surfaceVectorFields

        Uf

Reconstructing point fields

    Reconstructing pointVectorFields

        pointDisplacement

No lagrangian fields

No FA fields

Time = 0.78

Reconstructing FV fields

    Reconstructing volScalarFields

        k
        nut
        omega
        p

    Reconstructing volVectorFields

        U

    Reconstructing surfaceScalarFields

        meshPhi
        phi

    Reconstructing surfaceVectorFields

        Uf

Reconstructing point fields

    Reconstructing pointVectorFields

        pointDisplacement

No lagrangian fields

No FA fields

Time = 0.79

Reconstructing FV fields

    Reconstructing volScalarFields

        k
        nut
        omega
        p

    Reconstructing volVectorFields

        U

    Reconstructing surfaceScalarFields

        meshPhi
        phi

    Reconstructing surfaceVectorFields

        Uf

Reconstructing point fields

    Reconstructing pointVectorFields

        pointDisplacement

No lagrangian fields

No FA fields

Time = 0.8

Reconstructing FV fields

    Reconstructing volScalarFields

        k
        nut
        omega
        p

    Reconstructing volVectorFields

        U

    Reconstructing surfaceScalarFields

        meshPhi
        phi

    Reconstructing surfaceVectorFields

        Uf

Reconstructing point fields

    Reconstructing pointVectorFields

        pointDisplacement

No lagrangian fields

No FA fields

Time = 0.81

Reconstructing FV fields

    Reconstructing volScalarFields

        k
        nut
        omega
        p

    Reconstructing volVectorFields

        U

    Reconstructing surfaceScalarFields

        meshPhi
        phi

    Reconstructing surfaceVectorFields

        Uf

Reconstructing point fields

    Reconstructing pointVectorFields

        pointDisplacement

No lagrangian fields

No FA fields

Time = 0.82

Reconstructing FV fields

    Reconstructing volScalarFields

        k
        nut
        omega
        p

    Reconstructing volVectorFields

        U

    Reconstructing surfaceScalarFields

        meshPhi
        phi

    Reconstructing surfaceVectorFields

        Uf

Reconstructing point fields

    Reconstructing pointVectorFields

        pointDisplacement

No lagrangian fields

No FA fields

Time = 0.83

Reconstructing FV fields

    Reconstructing volScalarFields

        k
        nut
        omega
        p

    Reconstructing volVectorFields

        U

    Reconstructing surfaceScalarFields

        meshPhi
        phi

    Reconstructing surfaceVectorFields

        Uf

Reconstructing point fields

    Reconstructing pointVectorFields

        pointDisplacement

No lagrangian fields

No FA fields

Time = 0.84

Reconstructing FV fields

    Reconstructing volScalarFields

        k
        nut
        omega
        p

    Reconstructing volVectorFields

        U

    Reconstructing surfaceScalarFields

        meshPhi
        phi

    Reconstructing surfaceVectorFields

        Uf

Reconstructing point fields

    Reconstructing pointVectorFields

        pointDisplacement

No lagrangian fields

No FA fields

Time = 0.85

Reconstructing FV fields

    Reconstructing volScalarFields

        k
        nut
        omega
        p

    Reconstructing volVectorFields

        U

    Reconstructing surfaceScalarFields

        meshPhi
        phi

    Reconstructing surfaceVectorFields

        Uf

Reconstructing point fields

    Reconstructing pointVectorFields

        pointDisplacement

No lagrangian fields

No FA fields

Time = 0.86

Reconstructing FV fields

    Reconstructing volScalarFields

        k
        nut
        omega
        p

    Reconstructing volVectorFields

        U

    Reconstructing surfaceScalarFields

        meshPhi
        phi

    Reconstructing surfaceVectorFields

        Uf

Reconstructing point fields

    Reconstructing pointVectorFields

        pointDisplacement

No lagrangian fields

No FA fields

Time = 0.87

Reconstructing FV fields

    Reconstructing volScalarFields

        k
        nut
        omega
        p

    Reconstructing volVectorFields

        U

    Reconstructing surfaceScalarFields

        meshPhi
        phi

    Reconstructing surfaceVectorFields

        Uf

Reconstructing point fields

    Reconstructing pointVectorFields

        pointDisplacement

No lagrangian fields

No FA fields

Time = 0.88

Reconstructing FV fields

    Reconstructing volScalarFields

        k
        nut
        omega
        p

    Reconstructing volVectorFields

        U

    Reconstructing surfaceScalarFields

        meshPhi
        phi

    Reconstructing surfaceVectorFields

        Uf

Reconstructing point fields

    Reconstructing pointVectorFields

        pointDisplacement

No lagrangian fields

No FA fields

Time = 0.89

Reconstructing FV fields

    Reconstructing volScalarFields

        k
        nut
        omega
        p

    Reconstructing volVectorFields

        U

    Reconstructing surfaceScalarFields

        meshPhi
        phi

    Reconstructing surfaceVectorFields

        Uf

Reconstructing point fields

    Reconstructing pointVectorFields

        pointDisplacement

No lagrangian fields

No FA fields

Time = 0.9

Reconstructing FV fields

    Reconstructing volScalarFields

        k
        nut
        omega
        p

    Reconstructing volVectorFields

        U

    Reconstructing surfaceScalarFields

        meshPhi
        phi

    Reconstructing surfaceVectorFields

        Uf

Reconstructing point fields

    Reconstructing pointVectorFields

        pointDisplacement

No lagrangian fields

No FA fields

Time = 0.91

Reconstructing FV fields

    Reconstructing volScalarFields

        k
        nut
        omega
        p

    Reconstructing volVectorFields

        U

    Reconstructing surfaceScalarFields

        meshPhi
        phi

    Reconstructing surfaceVectorFields

        Uf

Reconstructing point fields

    Reconstructing pointVectorFields

        pointDisplacement

No lagrangian fields

No FA fields

Time = 0.92

Reconstructing FV fields

    Reconstructing volScalarFields

        k
        nut
        omega
        p

    Reconstructing volVectorFields

        U

    Reconstructing surfaceScalarFields

        meshPhi
        phi

    Reconstructing surfaceVectorFields

        Uf

Reconstructing point fields

    Reconstructing pointVectorFields

        pointDisplacement

No lagrangian fields

No FA fields

Time = 0.93

Reconstructing FV fields

    Reconstructing volScalarFields

        k
        nut
        omega
        p

    Reconstructing volVectorFields

        U

    Reconstructing surfaceScalarFields

        meshPhi
        phi

    Reconstructing surfaceVectorFields

        Uf

Reconstructing point fields

    Reconstructing pointVectorFields

        pointDisplacement

No lagrangian fields

No FA fields

Time = 0.94

Reconstructing FV fields

    Reconstructing volScalarFields

        k
        nut
        omega
        p

    Reconstructing volVectorFields

        U

    Reconstructing surfaceScalarFields

        meshPhi
        phi

    Reconstructing surfaceVectorFields

        Uf

Reconstructing point fields

    Reconstructing pointVectorFields

        pointDisplacement

No lagrangian fields

No FA fields

Time = 0.95

Reconstructing FV fields

    Reconstructing volScalarFields

        k
        nut
        omega
        p

    Reconstructing volVectorFields

        U

    Reconstructing surfaceScalarFields

        meshPhi
        phi

    Reconstructing surfaceVectorFields

        Uf

Reconstructing point fields

    Reconstructing pointVectorFields

        pointDisplacement

No lagrangian fields

No FA fields

Time = 0.96

Reconstructing FV fields

    Reconstructing volScalarFields

        k
        nut
        omega
        p

    Reconstructing volVectorFields

        U

    Reconstructing surfaceScalarFields

        meshPhi
        phi

    Reconstructing surfaceVectorFields

        Uf

Reconstructing point fields

    Reconstructing pointVectorFields

        pointDisplacement

No lagrangian fields

No FA fields

Time = 0.97

Reconstructing FV fields

    Reconstructing volScalarFields

        k
        nut
        omega
        p

    Reconstructing volVectorFields

        U

    Reconstructing surfaceScalarFields

        meshPhi
        phi

    Reconstructing surfaceVectorFields

        Uf

Reconstructing point fields

    Reconstructing pointVectorFields

        pointDisplacement

No lagrangian fields

No FA fields

Time = 0.98

Reconstructing FV fields

    Reconstructing volScalarFields

        k
        nut
        omega
        p

    Reconstructing volVectorFields

        U

    Reconstructing surfaceScalarFields

        meshPhi
        phi

    Reconstructing surfaceVectorFields

        Uf

Reconstructing point fields

    Reconstructing pointVectorFields

        pointDisplacement

No lagrangian fields

No FA fields

Time = 0.99

Reconstructing FV fields

    Reconstructing volScalarFields

        k
        nut
        omega
        p

    Reconstructing volVectorFields

        U

    Reconstructing surfaceScalarFields

        meshPhi
        phi

    Reconstructing surfaceVectorFields

        Uf

Reconstructing point fields

    Reconstructing pointVectorFields

        pointDisplacement

No lagrangian fields

No FA fields

Time = 1

Reconstructing FV fields

    Reconstructing volScalarFields

        k
        nut
        omega
        p

    Reconstructing volVectorFields

        U

    Reconstructing surfaceScalarFields

        meshPhi
        phi

    Reconstructing surfaceVectorFields

        Uf

Reconstructing point fields

    Reconstructing pointVectorFields

        pointDisplacement

No lagrangian fields

No FA fields

Time = 1.01

Reconstructing FV fields

    Reconstructing volScalarFields

        k
        nut
        omega
        p

    Reconstructing volVectorFields

        U

    Reconstructing surfaceScalarFields

        meshPhi
        phi

    Reconstructing surfaceVectorFields

        Uf

Reconstructing point fields

    Reconstructing pointVectorFields

        pointDisplacement

No lagrangian fields

No FA fields

Time = 1.02

Reconstructing FV fields

    Reconstructing volScalarFields

        k
        nut
        omega
        p

    Reconstructing volVectorFields

        U

    Reconstructing surfaceScalarFields

        meshPhi
        phi

    Reconstructing surfaceVectorFields

        Uf

Reconstructing point fields

    Reconstructing pointVectorFields

        pointDisplacement

No lagrangian fields

No FA fields

Time = 1.03

Reconstructing FV fields

    Reconstructing volScalarFields

        k
        nut
        omega
        p

    Reconstructing volVectorFields

        U

    Reconstructing surfaceScalarFields

        meshPhi
        phi

    Reconstructing surfaceVectorFields

        Uf

Reconstructing point fields

    Reconstructing pointVectorFields

        pointDisplacement

No lagrangian fields

No FA fields

Time = 1.04

Reconstructing FV fields

    Reconstructing volScalarFields

        k
        nut
        omega
        p

    Reconstructing volVectorFields

        U

    Reconstructing surfaceScalarFields

        meshPhi
        phi

    Reconstructing surfaceVectorFields

        Uf

Reconstructing point fields

    Reconstructing pointVectorFields

        pointDisplacement

No lagrangian fields

No FA fields

Time = 1.05

Reconstructing FV fields

    Reconstructing volScalarFields

        k
        nut
        omega
        p

    Reconstructing volVectorFields

        U

    Reconstructing surfaceScalarFields

        meshPhi
        phi

    Reconstructing surfaceVectorFields

        Uf

Reconstructing point fields

    Reconstructing pointVectorFields

        pointDisplacement

No lagrangian fields

No FA fields

Time = 1.06

Reconstructing FV fields

    Reconstructing volScalarFields

        k
        nut
        omega
        p

    Reconstructing volVectorFields

        U

    Reconstructing surfaceScalarFields

        meshPhi
        phi

    Reconstructing surfaceVectorFields

        Uf

Reconstructing point fields

    Reconstructing pointVectorFields

        pointDisplacement

No lagrangian fields

No FA fields

Time = 1.07

Reconstructing FV fields

    Reconstructing volScalarFields

        k
        nut
        omega
        p

    Reconstructing volVectorFields

        U

    Reconstructing surfaceScalarFields

        meshPhi
        phi

    Reconstructing surfaceVectorFields

        Uf

Reconstructing point fields

    Reconstructing pointVectorFields

        pointDisplacement

No lagrangian fields

No FA fields

Time = 1.08

Reconstructing FV fields

    Reconstructing volScalarFields

        k
        nut
        omega
        p

    Reconstructing volVectorFields

        U

    Reconstructing surfaceScalarFields

        meshPhi
        phi

    Reconstructing surfaceVectorFields

        Uf

Reconstructing point fields

    Reconstructing pointVectorFields

        pointDisplacement

No lagrangian fields

No FA fields

Time = 1.09

Reconstructing FV fields

    Reconstructing volScalarFields

        k
        nut
        omega
        p

    Reconstructing volVectorFields

        U

    Reconstructing surfaceScalarFields

        meshPhi
        phi

    Reconstructing surfaceVectorFields

        Uf

Reconstructing point fields

    Reconstructing pointVectorFields

        pointDisplacement

No lagrangian fields

No FA fields

Time = 1.1

Reconstructing FV fields

    Reconstructing volScalarFields

        k
        nut
        omega
        p

    Reconstructing volVectorFields

        U

    Reconstructing surfaceScalarFields

        meshPhi
        phi

    Reconstructing surfaceVectorFields

        Uf

Reconstructing point fields

    Reconstructing pointVectorFields

        pointDisplacement

No lagrangian fields

No FA fields

Time = 1.11

Reconstructing FV fields

    Reconstructing volScalarFields

        k
        nut
        omega
        p

    Reconstructing volVectorFields

        U

    Reconstructing surfaceScalarFields

        meshPhi
        phi

    Reconstructing surfaceVectorFields

        Uf

Reconstructing point fields

    Reconstructing pointVectorFields

        pointDisplacement

No lagrangian fields

No FA fields

Time = 1.12

Reconstructing FV fields

    Reconstructing volScalarFields

        k
        nut
        omega
        p

    Reconstructing volVectorFields

        U

    Reconstructing surfaceScalarFields

        meshPhi
        phi

    Reconstructing surfaceVectorFields

        Uf

Reconstructing point fields

    Reconstructing pointVectorFields

        pointDisplacement

No lagrangian fields

No FA fields

Time = 1.13

Reconstructing FV fields

    Reconstructing volScalarFields

        k
        nut
        omega
        p

    Reconstructing volVectorFields

        U

    Reconstructing surfaceScalarFields

        meshPhi
        phi

    Reconstructing surfaceVectorFields

        Uf

Reconstructing point fields

    Reconstructing pointVectorFields

        pointDisplacement

No lagrangian fields

No FA fields

Time = 1.14

Reconstructing FV fields

    Reconstructing volScalarFields

        k
        nut
        omega
        p

    Reconstructing volVectorFields

        U

    Reconstructing surfaceScalarFields

        meshPhi
        phi

    Reconstructing surfaceVectorFields

        Uf

Reconstructing point fields

    Reconstructing pointVectorFields

        pointDisplacement

No lagrangian fields

No FA fields

Time = 1.15

Reconstructing FV fields

    Reconstructing volScalarFields

        k
        nut
        omega
        p

    Reconstructing volVectorFields

        U

    Reconstructing surfaceScalarFields

        meshPhi
        phi

    Reconstructing surfaceVectorFields

        Uf

Reconstructing point fields

    Reconstructing pointVectorFields

        pointDisplacement

No lagrangian fields

No FA fields

Time = 1.16

Reconstructing FV fields

    Reconstructing volScalarFields

        k
        nut
        omega
        p

    Reconstructing volVectorFields

        U

    Reconstructing surfaceScalarFields

        meshPhi
        phi

    Reconstructing surfaceVectorFields

        Uf

Reconstructing point fields

    Reconstructing pointVectorFields

        pointDisplacement

No lagrangian fields

No FA fields

Time = 1.17

Reconstructing FV fields

    Reconstructing volScalarFields

        k
        nut
        omega
        p

    Reconstructing volVectorFields

        U

    Reconstructing surfaceScalarFields

        meshPhi
        phi

    Reconstructing surfaceVectorFields

        Uf

Reconstructing point fields

    Reconstructing pointVectorFields

        pointDisplacement

No lagrangian fields

No FA fields

Time = 1.18

Reconstructing FV fields

    Reconstructing volScalarFields

        k
        nut
        omega
        p

    Reconstructing volVectorFields

        U

    Reconstructing surfaceScalarFields

        meshPhi
        phi

    Reconstructing surfaceVectorFields

        Uf

Reconstructing point fields

    Reconstructing pointVectorFields

        pointDisplacement

No lagrangian fields

No FA fields

Time = 1.19

Reconstructing FV fields

    Reconstructing volScalarFields

        k
        nut
        omega
        p

    Reconstructing volVectorFields

        U

    Reconstructing surfaceScalarFields

        meshPhi
        phi

    Reconstructing surfaceVectorFields

        Uf

Reconstructing point fields

    Reconstructing pointVectorFields

        pointDisplacement

No lagrangian fields

No FA fields

Time = 1.2

Reconstructing FV fields

    Reconstructing volScalarFields

        k
        nut
        omega
        p

    Reconstructing volVectorFields

        U

    Reconstructing surfaceScalarFields

        meshPhi
        phi

    Reconstructing surfaceVectorFields

        Uf

Reconstructing point fields

    Reconstructing pointVectorFields

        pointDisplacement

No lagrangian fields

No FA fields

Time = 1.21

Reconstructing FV fields

    Reconstructing volScalarFields

        k
        nut
        omega
        p

    Reconstructing volVectorFields

        U

    Reconstructing surfaceScalarFields

        meshPhi
        phi

    Reconstructing surfaceVectorFields

        Uf

Reconstructing point fields

    Reconstructing pointVectorFields

        pointDisplacement

No lagrangian fields

No FA fields

Time = 1.22

Reconstructing FV fields

    Reconstructing volScalarFields

        k
        nut
        omega
        p

    Reconstructing volVectorFields

        U

    Reconstructing surfaceScalarFields

        meshPhi
        phi

    Reconstructing surfaceVectorFields

        Uf

Reconstructing point fields

    Reconstructing pointVectorFields

        pointDisplacement

No lagrangian fields

No FA fields

Time = 1.23

Reconstructing FV fields

    Reconstructing volScalarFields

        k
        nut
        omega
        p

    Reconstructing volVectorFields

        U

    Reconstructing surfaceScalarFields

        meshPhi
        phi

    Reconstructing surfaceVectorFields

        Uf

Reconstructing point fields

    Reconstructing pointVectorFields

        pointDisplacement

No lagrangian fields

No FA fields

Time = 1.24

Reconstructing FV fields

    Reconstructing volScalarFields

        k
        nut
        omega
        p

    Reconstructing volVectorFields

        U

    Reconstructing surfaceScalarFields

        meshPhi
        phi

    Reconstructing surfaceVectorFields

        Uf

Reconstructing point fields

    Reconstructing pointVectorFields

        pointDisplacement

No lagrangian fields

No FA fields

Time = 1.25

Reconstructing FV fields

    Reconstructing volScalarFields

        k
        nut
        omega
        p

    Reconstructing volVectorFields

        U

    Reconstructing surfaceScalarFields

        meshPhi
        phi

    Reconstructing surfaceVectorFields

        Uf

Reconstructing point fields

    Reconstructing pointVectorFields

        pointDisplacement

No lagrangian fields

No FA fields

Time = 1.26

Reconstructing FV fields

    Reconstructing volScalarFields

        k
        nut
        omega
        p

    Reconstructing volVectorFields

        U

    Reconstructing surfaceScalarFields

        meshPhi
        phi

    Reconstructing surfaceVectorFields

        Uf

Reconstructing point fields

    Reconstructing pointVectorFields

        pointDisplacement

No lagrangian fields

No FA fields

Time = 1.27

Reconstructing FV fields

    Reconstructing volScalarFields

        k
        nut
        omega
        p

    Reconstructing volVectorFields

        U

    Reconstructing surfaceScalarFields

        meshPhi
        phi

    Reconstructing surfaceVectorFields

        Uf

Reconstructing point fields

    Reconstructing pointVectorFields

        pointDisplacement

No lagrangian fields

No FA fields

Time = 1.28

Reconstructing FV fields

    Reconstructing volScalarFields

        k
        nut
        omega
        p

    Reconstructing volVectorFields

        U

    Reconstructing surfaceScalarFields

        meshPhi
        phi

    Reconstructing surfaceVectorFields

        Uf

Reconstructing point fields

    Reconstructing pointVectorFields

        pointDisplacement

No lagrangian fields

No FA fields

Time = 1.29

Reconstructing FV fields

    Reconstructing volScalarFields

        k
        nut
        omega
        p

    Reconstructing volVectorFields

        U

    Reconstructing surfaceScalarFields

        meshPhi
        phi

    Reconstructing surfaceVectorFields

        Uf

Reconstructing point fields

    Reconstructing pointVectorFields

        pointDisplacement

No lagrangian fields

No FA fields

Time = 1.3

Reconstructing FV fields

    Reconstructing volScalarFields

        k
        nut
        omega
        p

    Reconstructing volVectorFields

        U

    Reconstructing surfaceScalarFields

        meshPhi
        phi

    Reconstructing surfaceVectorFields

        Uf

Reconstructing point fields

    Reconstructing pointVectorFields

        pointDisplacement

No lagrangian fields

No FA fields

Time = 1.31

Reconstructing FV fields

    Reconstructing volScalarFields

        k
        nut
        omega
        p

    Reconstructing volVectorFields

        U

    Reconstructing surfaceScalarFields

        meshPhi
        phi

    Reconstructing surfaceVectorFields

        Uf

Reconstructing point fields

    Reconstructing pointVectorFields

        pointDisplacement

No lagrangian fields

No FA fields

Time = 1.32

Reconstructing FV fields

    Reconstructing volScalarFields

        k
        nut
        omega
        p

    Reconstructing volVectorFields

        U

    Reconstructing surfaceScalarFields

        meshPhi
        phi

    Reconstructing surfaceVectorFields

        Uf

Reconstructing point fields

    Reconstructing pointVectorFields

        pointDisplacement

No lagrangian fields

No FA fields

Time = 1.33

Reconstructing FV fields

    Reconstructing volScalarFields

        k
        nut
        omega
        p

    Reconstructing volVectorFields

        U

    Reconstructing surfaceScalarFields

        meshPhi
        phi

    Reconstructing surfaceVectorFields

        Uf

Reconstructing point fields

    Reconstructing pointVectorFields

        pointDisplacement

No lagrangian fields

No FA fields

Time = 1.34

Reconstructing FV fields

    Reconstructing volScalarFields

        k
        nut
        omega
        p

    Reconstructing volVectorFields

        U

    Reconstructing surfaceScalarFields

        meshPhi
        phi

    Reconstructing surfaceVectorFields

        Uf

Reconstructing point fields

    Reconstructing pointVectorFields

        pointDisplacement

No lagrangian fields

No FA fields

Time = 1.35

Reconstructing FV fields

    Reconstructing volScalarFields

        k
        nut
        omega
        p

    Reconstructing volVectorFields

        U

    Reconstructing surfaceScalarFields

        meshPhi
        phi

    Reconstructing surfaceVectorFields

        Uf

Reconstructing point fields

    Reconstructing pointVectorFields

        pointDisplacement

No lagrangian fields

No FA fields

Time = 1.36

Reconstructing FV fields

    Reconstructing volScalarFields

        k
        nut
        omega
        p

    Reconstructing volVectorFields

        U

    Reconstructing surfaceScalarFields

        meshPhi
        phi

    Reconstructing surfaceVectorFields

        Uf

Reconstructing point fields

    Reconstructing pointVectorFields

        pointDisplacement

No lagrangian fields

No FA fields

Time = 1.37

Reconstructing FV fields

    Reconstructing volScalarFields

        k
        nut
        omega
        p

    Reconstructing volVectorFields

        U

    Reconstructing surfaceScalarFields

        meshPhi
        phi

    Reconstructing surfaceVectorFields

        Uf

Reconstructing point fields

    Reconstructing pointVectorFields

        pointDisplacement

No lagrangian fields

No FA fields

Time = 1.38

Reconstructing FV fields

    Reconstructing volScalarFields

        k
        nut
        omega
        p

    Reconstructing volVectorFields

        U

    Reconstructing surfaceScalarFields

        meshPhi
        phi

    Reconstructing surfaceVectorFields

        Uf

Reconstructing point fields

    Reconstructing pointVectorFields

        pointDisplacement

No lagrangian fields

No FA fields

Time = 1.39

Reconstructing FV fields

    Reconstructing volScalarFields

        k
        nut
        omega
        p

    Reconstructing volVectorFields

        U

    Reconstructing surfaceScalarFields

        meshPhi
        phi

    Reconstructing surfaceVectorFields

        Uf

Reconstructing point fields

    Reconstructing pointVectorFields

        pointDisplacement

No lagrangian fields

No FA fields

Time = 1.4

Reconstructing FV fields

    Reconstructing volScalarFields

        k
        nut
        omega
        p

    Reconstructing volVectorFields

        U

    Reconstructing surfaceScalarFields

        meshPhi
        phi

    Reconstructing surfaceVectorFields

        Uf

Reconstructing point fields

    Reconstructing pointVectorFields

        pointDisplacement

No lagrangian fields

No FA fields

Time = 1.41

Reconstructing FV fields

    Reconstructing volScalarFields

        k
        nut
        omega
        p

    Reconstructing volVectorFields

        U

    Reconstructing surfaceScalarFields

        meshPhi
        phi

    Reconstructing surfaceVectorFields

        Uf

Reconstructing point fields

    Reconstructing pointVectorFields

        pointDisplacement

No lagrangian fields

No FA fields

Time = 1.42

Reconstructing FV fields

    Reconstructing volScalarFields

        k
        nut
        omega
        p

    Reconstructing volVectorFields

        U

    Reconstructing surfaceScalarFields

        meshPhi
        phi

    Reconstructing surfaceVectorFields

        Uf

Reconstructing point fields

    Reconstructing pointVectorFields

        pointDisplacement

No lagrangian fields

No FA fields

Time = 1.43

Reconstructing FV fields

    Reconstructing volScalarFields

        k
        nut
        omega
        p

    Reconstructing volVectorFields

        U

    Reconstructing surfaceScalarFields

        meshPhi
        phi

    Reconstructing surfaceVectorFields

        Uf

Reconstructing point fields

    Reconstructing pointVectorFields

        pointDisplacement

No lagrangian fields

No FA fields

Time = 1.44

Reconstructing FV fields

    Reconstructing volScalarFields

        k
        nut
        omega
        p

    Reconstructing volVectorFields

        U

    Reconstructing surfaceScalarFields

        meshPhi
        phi

    Reconstructing surfaceVectorFields

        Uf

Reconstructing point fields

    Reconstructing pointVectorFields

        pointDisplacement

No lagrangian fields

No FA fields

Time = 1.45

Reconstructing FV fields

    Reconstructing volScalarFields

        k
        nut
        omega
        p

    Reconstructing volVectorFields

        U

    Reconstructing surfaceScalarFields

        meshPhi
        phi

    Reconstructing surfaceVectorFields

        Uf

Reconstructing point fields

    Reconstructing pointVectorFields

        pointDisplacement

No lagrangian fields

No FA fields

Time = 1.46

Reconstructing FV fields

    Reconstructing volScalarFields

        k
        nut
        omega
        p

    Reconstructing volVectorFields

        U

    Reconstructing surfaceScalarFields

        meshPhi
        phi

    Reconstructing surfaceVectorFields

        Uf

Reconstructing point fields

    Reconstructing pointVectorFields

        pointDisplacement

No lagrangian fields

No FA fields

Time = 1.47

Reconstructing FV fields

    Reconstructing volScalarFields

        k
        nut
        omega
        p

    Reconstructing volVectorFields

        U

    Reconstructing surfaceScalarFields

        meshPhi
        phi

    Reconstructing surfaceVectorFields

        Uf

Reconstructing point fields

    Reconstructing pointVectorFields

        pointDisplacement

No lagrangian fields

No FA fields

Time = 1.48

Reconstructing FV fields

    Reconstructing volScalarFields

        k
        nut
        omega
        p

    Reconstructing volVectorFields

        U

    Reconstructing surfaceScalarFields

        meshPhi
        phi

    Reconstructing surfaceVectorFields

        Uf

Reconstructing point fields

    Reconstructing pointVectorFields

        pointDisplacement

No lagrangian fields

No FA fields

Time = 1.49

Reconstructing FV fields

    Reconstructing volScalarFields

        k
        nut
        omega
        p

    Reconstructing volVectorFields

        U

    Reconstructing surfaceScalarFields

        meshPhi
        phi

    Reconstructing surfaceVectorFields

        Uf

Reconstructing point fields

    Reconstructing pointVectorFields

        pointDisplacement

No lagrangian fields

No FA fields

Time = 1.5

Reconstructing FV fields

    Reconstructing volScalarFields

        k
        nut
        omega
        p

    Reconstructing volVectorFields

        U

    Reconstructing surfaceScalarFields

        meshPhi
        phi

    Reconstructing surfaceVectorFields

        Uf

Reconstructing point fields

    Reconstructing pointVectorFields

        pointDisplacement

No lagrangian fields

No FA fields

Time = 1.51

Reconstructing FV fields

    Reconstructing volScalarFields

        k
        nut
        omega
        p

    Reconstructing volVectorFields

        U

    Reconstructing surfaceScalarFields

        meshPhi
        phi

    Reconstructing surfaceVectorFields

        Uf

Reconstructing point fields

    Reconstructing pointVectorFields

        pointDisplacement

No lagrangian fields

No FA fields

Time = 1.52

Reconstructing FV fields

    Reconstructing volScalarFields

        k
        nut
        omega
        p

    Reconstructing volVectorFields

        U

    Reconstructing surfaceScalarFields

        meshPhi
        phi

    Reconstructing surfaceVectorFields

        Uf

Reconstructing point fields

    Reconstructing pointVectorFields

        pointDisplacement

No lagrangian fields

No FA fields

Time = 1.53

Reconstructing FV fields

    Reconstructing volScalarFields

        k
        nut
        omega
        p

    Reconstructing volVectorFields

        U

    Reconstructing surfaceScalarFields

        meshPhi
        phi

    Reconstructing surfaceVectorFields

        Uf

Reconstructing point fields

    Reconstructing pointVectorFields

        pointDisplacement

No lagrangian fields

No FA fields

Time = 1.54

Reconstructing FV fields

    Reconstructing volScalarFields

        k
        nut
        omega
        p

    Reconstructing volVectorFields

        U

    Reconstructing surfaceScalarFields

        meshPhi
        phi

    Reconstructing surfaceVectorFields

        Uf

Reconstructing point fields

    Reconstructing pointVectorFields

        pointDisplacement

No lagrangian fields

No FA fields

Time = 1.55

Reconstructing FV fields

    Reconstructing volScalarFields

        k
        nut
        omega
        p

    Reconstructing volVectorFields

        U

    Reconstructing surfaceScalarFields

        meshPhi
        phi

    Reconstructing surfaceVectorFields

        Uf

Reconstructing point fields

    Reconstructing pointVectorFields

        pointDisplacement

No lagrangian fields

No FA fields

Time = 1.56

Reconstructing FV fields

    Reconstructing volScalarFields

        k
        nut
        omega
        p

    Reconstructing volVectorFields

        U

    Reconstructing surfaceScalarFields

        meshPhi
        phi

    Reconstructing surfaceVectorFields

        Uf

Reconstructing point fields

    Reconstructing pointVectorFields

        pointDisplacement

No lagrangian fields

No FA fields

Time = 1.57

Reconstructing FV fields

    Reconstructing volScalarFields

        k
        nut
        omega
        p

    Reconstructing volVectorFields

        U

    Reconstructing surfaceScalarFields

        meshPhi
        phi

    Reconstructing surfaceVectorFields

        Uf

Reconstructing point fields

    Reconstructing pointVectorFields

        pointDisplacement

No lagrangian fields

No FA fields

Time = 1.58

Reconstructing FV fields

    Reconstructing volScalarFields

        k
        nut
        omega
        p

    Reconstructing volVectorFields

        U

    Reconstructing surfaceScalarFields

        meshPhi
        phi

    Reconstructing surfaceVectorFields

        Uf

Reconstructing point fields

    Reconstructing pointVectorFields

        pointDisplacement

No lagrangian fields

No FA fields

Time = 1.59

Reconstructing FV fields

    Reconstructing volScalarFields

        k
        nut
        omega
        p

    Reconstructing volVectorFields

        U

    Reconstructing surfaceScalarFields

        meshPhi
        phi

    Reconstructing surfaceVectorFields

        Uf

Reconstructing point fields

    Reconstructing pointVectorFields

        pointDisplacement

No lagrangian fields

No FA fields

Time = 1.6

Reconstructing FV fields

    Reconstructing volScalarFields

        k
        nut
        omega
        p

    Reconstructing volVectorFields

        U

    Reconstructing surfaceScalarFields

        meshPhi
        phi

    Reconstructing surfaceVectorFields

        Uf

Reconstructing point fields

    Reconstructing pointVectorFields

        pointDisplacement

No lagrangian fields

No FA fields

Time = 1.61

Reconstructing FV fields

    Reconstructing volScalarFields

        k
        nut
        omega
        p

    Reconstructing volVectorFields

        U

    Reconstructing surfaceScalarFields

        meshPhi
        phi

    Reconstructing surfaceVectorFields

        Uf

Reconstructing point fields

    Reconstructing pointVectorFields

        pointDisplacement

No lagrangian fields

No FA fields

Time = 1.62

Reconstructing FV fields

    Reconstructing volScalarFields

        k
        nut
        omega
        p

    Reconstructing volVectorFields

        U

    Reconstructing surfaceScalarFields

        meshPhi
        phi

    Reconstructing surfaceVectorFields

        Uf

Reconstructing point fields

    Reconstructing pointVectorFields

        pointDisplacement

No lagrangian fields

No FA fields

Time = 1.63

Reconstructing FV fields

    Reconstructing volScalarFields

        k
        nut
        omega
        p

    Reconstructing volVectorFields

        U

    Reconstructing surfaceScalarFields

        meshPhi
        phi

    Reconstructing surfaceVectorFields

        Uf

Reconstructing point fields

    Reconstructing pointVectorFields

        pointDisplacement

No lagrangian fields

No FA fields

Time = 1.64

Reconstructing FV fields

    Reconstructing volScalarFields

        k
        nut
        omega
        p

    Reconstructing volVectorFields

        U

    Reconstructing surfaceScalarFields

        meshPhi
        phi

    Reconstructing surfaceVectorFields

        Uf

Reconstructing point fields

    Reconstructing pointVectorFields

        pointDisplacement

No lagrangian fields

No FA fields

Time = 1.65

Reconstructing FV fields

    Reconstructing volScalarFields

        k
        nut
        omega
        p

    Reconstructing volVectorFields

        U

    Reconstructing surfaceScalarFields

        meshPhi
        phi

    Reconstructing surfaceVectorFields

        Uf

Reconstructing point fields

    Reconstructing pointVectorFields

        pointDisplacement

No lagrangian fields

No FA fields

Time = 1.66

Reconstructing FV fields

    Reconstructing volScalarFields

        k
        nut
        omega
        p

    Reconstructing volVectorFields

        U

    Reconstructing surfaceScalarFields

        meshPhi
        phi

    Reconstructing surfaceVectorFields

        Uf

Reconstructing point fields

    Reconstructing pointVectorFields

        pointDisplacement

No lagrangian fields

No FA fields

Time = 1.67

Reconstructing FV fields

    Reconstructing volScalarFields

        k
        nut
        omega
        p

    Reconstructing volVectorFields

        U

    Reconstructing surfaceScalarFields

        meshPhi
        phi

    Reconstructing surfaceVectorFields

        Uf

Reconstructing point fields

    Reconstructing pointVectorFields

        pointDisplacement

No lagrangian fields

No FA fields

Time = 1.68

Reconstructing FV fields

    Reconstructing volScalarFields

        k
        nut
        omega
        p

    Reconstructing volVectorFields

        U

    Reconstructing surfaceScalarFields

        meshPhi
        phi

    Reconstructing surfaceVectorFields

        Uf

Reconstructing point fields

    Reconstructing pointVectorFields

        pointDisplacement

No lagrangian fields

No FA fields

Time = 1.69

Reconstructing FV fields

    Reconstructing volScalarFields

        k
        nut
        omega
        p

    Reconstructing volVectorFields

        U

    Reconstructing surfaceScalarFields

        meshPhi
        phi

    Reconstructing surfaceVectorFields

        Uf

Reconstructing point fields

    Reconstructing pointVectorFields

        pointDisplacement

No lagrangian fields

No FA fields

Time = 1.7

Reconstructing FV fields

    Reconstructing volScalarFields

        k
        nut
        omega
        p

    Reconstructing volVectorFields

        U

    Reconstructing surfaceScalarFields

        meshPhi
        phi

    Reconstructing surfaceVectorFields

        Uf

Reconstructing point fields

    Reconstructing pointVectorFields

        pointDisplacement

No lagrangian fields

No FA fields

Time = 1.71

Reconstructing FV fields

    Reconstructing volScalarFields

        k
        nut
        omega
        p

    Reconstructing volVectorFields

        U

    Reconstructing surfaceScalarFields

        meshPhi
        phi

    Reconstructing surfaceVectorFields

        Uf

Reconstructing point fields

    Reconstructing pointVectorFields

        pointDisplacement

No lagrangian fields

No FA fields

Time = 1.72

Reconstructing FV fields

    Reconstructing volScalarFields

        k
        nut
        omega
        p

    Reconstructing volVectorFields

        U

    Reconstructing surfaceScalarFields

        meshPhi
        phi

    Reconstructing surfaceVectorFields

        Uf

Reconstructing point fields

    Reconstructing pointVectorFields

        pointDisplacement

No lagrangian fields

No FA fields

Time = 1.73

Reconstructing FV fields

    Reconstructing volScalarFields

        k
        nut
        omega
        p

    Reconstructing volVectorFields

        U

    Reconstructing surfaceScalarFields

        meshPhi
        phi

    Reconstructing surfaceVectorFields

        Uf

Reconstructing point fields

    Reconstructing pointVectorFields

        pointDisplacement

No lagrangian fields

No FA fields

Time = 1.74

Reconstructing FV fields

    Reconstructing volScalarFields

        k
        nut
        omega
        p

    Reconstructing volVectorFields

        U

    Reconstructing surfaceScalarFields

        meshPhi
        phi

    Reconstructing surfaceVectorFields

        Uf

Reconstructing point fields

    Reconstructing pointVectorFields

        pointDisplacement

No lagrangian fields

No FA fields

Time = 1.75

Reconstructing FV fields

    Reconstructing volScalarFields

        k
        nut
        omega
        p

    Reconstructing volVectorFields

        U

    Reconstructing surfaceScalarFields

        meshPhi
        phi

    Reconstructing surfaceVectorFields

        Uf

Reconstructing point fields

    Reconstructing pointVectorFields

        pointDisplacement

No lagrangian fields

No FA fields

Time = 1.76

Reconstructing FV fields

    Reconstructing volScalarFields

        k
        nut
        omega
        p

    Reconstructing volVectorFields

        U

    Reconstructing surfaceScalarFields

        meshPhi
        phi

    Reconstructing surfaceVectorFields

        Uf

Reconstructing point fields

    Reconstructing pointVectorFields

        pointDisplacement

No lagrangian fields

No FA fields

Time = 1.77

Reconstructing FV fields

    Reconstructing volScalarFields

        k
        nut
        omega
        p

    Reconstructing volVectorFields

        U

    Reconstructing surfaceScalarFields

        meshPhi
        phi

    Reconstructing surfaceVectorFields

        Uf

Reconstructing point fields

    Reconstructing pointVectorFields

        pointDisplacement

No lagrangian fields

No FA fields

Time = 1.78

Reconstructing FV fields

    Reconstructing volScalarFields

        k
        nut
        omega
        p

    Reconstructing volVectorFields

        U

    Reconstructing surfaceScalarFields

        meshPhi
        phi

    Reconstructing surfaceVectorFields

        Uf

Reconstructing point fields

    Reconstructing pointVectorFields

        pointDisplacement

No lagrangian fields

No FA fields

Time = 1.79

Reconstructing FV fields

    Reconstructing volScalarFields

        k
        nut
        omega
        p

    Reconstructing volVectorFields

        U

    Reconstructing surfaceScalarFields

        meshPhi
        phi

    Reconstructing surfaceVectorFields

        Uf

Reconstructing point fields

    Reconstructing pointVectorFields

        pointDisplacement

No lagrangian fields

No FA fields

Time = 1.8

Reconstructing FV fields

    Reconstructing volScalarFields

        k
        nut
        omega
        p

    Reconstructing volVectorFields

        U

    Reconstructing surfaceScalarFields

        meshPhi
        phi

    Reconstructing surfaceVectorFields

        Uf

Reconstructing point fields

    Reconstructing pointVectorFields

        pointDisplacement

No lagrangian fields

No FA fields

Time = 1.81

Reconstructing FV fields

    Reconstructing volScalarFields

        k
        nut
        omega
        p

    Reconstructing volVectorFields

        U

    Reconstructing surfaceScalarFields

        meshPhi
        phi

    Reconstructing surfaceVectorFields

        Uf

Reconstructing point fields

    Reconstructing pointVectorFields

        pointDisplacement

No lagrangian fields

No FA fields

Time = 1.82

Reconstructing FV fields

    Reconstructing volScalarFields

        k
        nut
        omega
        p

    Reconstructing volVectorFields

        U

    Reconstructing surfaceScalarFields

        meshPhi
        phi

    Reconstructing surfaceVectorFields

        Uf

Reconstructing point fields

    Reconstructing pointVectorFields

        pointDisplacement

No lagrangian fields

No FA fields

Time = 1.83

Reconstructing FV fields

    Reconstructing volScalarFields

        k
        nut
        omega
        p

    Reconstructing volVectorFields

        U

    Reconstructing surfaceScalarFields

        meshPhi
        phi

    Reconstructing surfaceVectorFields

        Uf

Reconstructing point fields

    Reconstructing pointVectorFields

        pointDisplacement

No lagrangian fields

No FA fields

Time = 1.84

Reconstructing FV fields

    Reconstructing volScalarFields

        k
        nut
        omega
        p

    Reconstructing volVectorFields

        U

    Reconstructing surfaceScalarFields

        meshPhi
        phi

    Reconstructing surfaceVectorFields

        Uf

Reconstructing point fields

    Reconstructing pointVectorFields

        pointDisplacement

No lagrangian fields

No FA fields

Time = 1.85

Reconstructing FV fields

    Reconstructing volScalarFields

        k
        nut
        omega
        p

    Reconstructing volVectorFields

        U

    Reconstructing surfaceScalarFields

        meshPhi
        phi

    Reconstructing surfaceVectorFields

        Uf

Reconstructing point fields

    Reconstructing pointVectorFields

        pointDisplacement

No lagrangian fields

No FA fields

Time = 1.86

Reconstructing FV fields

    Reconstructing volScalarFields

        k
        nut
        omega
        p

    Reconstructing volVectorFields

        U

    Reconstructing surfaceScalarFields

        meshPhi
        phi

    Reconstructing surfaceVectorFields

        Uf

Reconstructing point fields

    Reconstructing pointVectorFields

        pointDisplacement

No lagrangian fields

No FA fields

Time = 1.87

Reconstructing FV fields

    Reconstructing volScalarFields

        k
        nut
        omega
        p

    Reconstructing volVectorFields

        U

    Reconstructing surfaceScalarFields

        meshPhi
        phi

    Reconstructing surfaceVectorFields

        Uf

Reconstructing point fields

    Reconstructing pointVectorFields

        pointDisplacement

No lagrangian fields

No FA fields

Time = 1.88

Reconstructing FV fields

    Reconstructing volScalarFields

        k
        nut
        omega
        p

    Reconstructing volVectorFields

        U

    Reconstructing surfaceScalarFields

        meshPhi
        phi

[...]

    Reconstructing surfaceScalarFields

        meshPhi
        phi

    Reconstructing surfaceVectorFields

        Uf

Reconstructing point fields

    Reconstructing pointVectorFields

        pointDisplacement

No lagrangian fields

No FA fields

Time = 4.54

Reconstructing FV fields

    Reconstructing volScalarFields

        k
        nut
        omega
        p

    Reconstructing volVectorFields

        U

    Reconstructing surfaceScalarFields

        meshPhi
        phi

    Reconstructing surfaceVectorFields

        Uf

Reconstructing point fields

    Reconstructing pointVectorFields

        pointDisplacement

No lagrangian fields

No FA fields

Time = 4.55

Reconstructing FV fields

    Reconstructing volScalarFields

        k
        nut
        omega
        p

    Reconstructing volVectorFields

        U

    Reconstructing surfaceScalarFields

        meshPhi
        phi

    Reconstructing surfaceVectorFields

        Uf

Reconstructing point fields

    Reconstructing pointVectorFields

        pointDisplacement

No lagrangian fields

No FA fields

Time = 4.56

Reconstructing FV fields

    Reconstructing volScalarFields

        k
        nut
        omega
        p

    Reconstructing volVectorFields

        U

    Reconstructing surfaceScalarFields

        meshPhi
        phi

    Reconstructing surfaceVectorFields

        Uf

Reconstructing point fields

    Reconstructing pointVectorFields

        pointDisplacement

No lagrangian fields

No FA fields

Time = 4.57

Reconstructing FV fields

    Reconstructing volScalarFields

        k
        nut
        omega
        p

    Reconstructing volVectorFields

        U

    Reconstructing surfaceScalarFields

        meshPhi
        phi

    Reconstructing surfaceVectorFields

        Uf

Reconstructing point fields

    Reconstructing pointVectorFields

        pointDisplacement

No lagrangian fields

No FA fields

Time = 4.58

Reconstructing FV fields

    Reconstructing volScalarFields

        k
        nut
        omega
        p

    Reconstructing volVectorFields

        U

    Reconstructing surfaceScalarFields

        meshPhi
        phi

    Reconstructing surfaceVectorFields

        Uf

Reconstructing point fields

    Reconstructing pointVectorFields

        pointDisplacement

No lagrangian fields

No FA fields

Time = 4.59

Reconstructing FV fields

    Reconstructing volScalarFields

        k
        nut
        omega
        p

    Reconstructing volVectorFields

        U

    Reconstructing surfaceScalarFields

        meshPhi
        phi

    Reconstructing surfaceVectorFields

        Uf

Reconstructing point fields

    Reconstructing pointVectorFields

        pointDisplacement

No lagrangian fields

No FA fields

Time = 4.6

Reconstructing FV fields

    Reconstructing volScalarFields

        k
        nut
        omega
        p

    Reconstructing volVectorFields

        U

    Reconstructing surfaceScalarFields

        meshPhi
        phi

    Reconstructing surfaceVectorFields

        Uf

Reconstructing point fields

    Reconstructing pointVectorFields

        pointDisplacement

No lagrangian fields

No FA fields

Time = 4.61

Reconstructing FV fields

    Reconstructing volScalarFields

        k
        nut
        omega
        p

    Reconstructing volVectorFields

        U

    Reconstructing surfaceScalarFields

        meshPhi
        phi

    Reconstructing surfaceVectorFields

        Uf

Reconstructing point fields

    Reconstructing pointVectorFields

        pointDisplacement

No lagrangian fields

No FA fields

Time = 4.62

Reconstructing FV fields

    Reconstructing volScalarFields

        k
        nut
        omega
        p

    Reconstructing volVectorFields

        U

    Reconstructing surfaceScalarFields

        meshPhi
        phi

    Reconstructing surfaceVectorFields

        Uf

Reconstructing point fields

    Reconstructing pointVectorFields

        pointDisplacement

No lagrangian fields

No FA fields

Time = 4.63

Reconstructing FV fields

    Reconstructing volScalarFields

        k
        nut
        omega
        p

    Reconstructing volVectorFields

        U

    Reconstructing surfaceScalarFields

        meshPhi
        phi

    Reconstructing surfaceVectorFields

        Uf

Reconstructing point fields

    Reconstructing pointVectorFields

        pointDisplacement

No lagrangian fields

No FA fields

Time = 4.64

Reconstructing FV fields

    Reconstructing volScalarFields

        k
        nut
        omega
        p

    Reconstructing volVectorFields

        U

    Reconstructing surfaceScalarFields

        meshPhi
        phi

    Reconstructing surfaceVectorFields

        Uf

Reconstructing point fields

    Reconstructing pointVectorFields

        pointDisplacement

No lagrangian fields

No FA fields

Time = 4.65

Reconstructing FV fields

    Reconstructing volScalarFields

        k
        nut
        omega
        p

    Reconstructing volVectorFields

        U

    Reconstructing surfaceScalarFields

        meshPhi
        phi

    Reconstructing surfaceVectorFields

        Uf

Reconstructing point fields

    Reconstructing pointVectorFields

        pointDisplacement

No lagrangian fields

No FA fields

Time = 4.66

Reconstructing FV fields

    Reconstructing volScalarFields

        k
        nut
        omega
        p

    Reconstructing volVectorFields

        U

    Reconstructing surfaceScalarFields

        meshPhi
        phi

    Reconstructing surfaceVectorFields

        Uf

Reconstructing point fields

    Reconstructing pointVectorFields

        pointDisplacement

No lagrangian fields

No FA fields

Time = 4.67

Reconstructing FV fields

    Reconstructing volScalarFields

        k
        nut
        omega
        p

    Reconstructing volVectorFields

        U

    Reconstructing surfaceScalarFields

        meshPhi
        phi

    Reconstructing surfaceVectorFields

        Uf

Reconstructing point fields

    Reconstructing pointVectorFields

        pointDisplacement

No lagrangian fields

No FA fields

Time = 4.68

Reconstructing FV fields

    Reconstructing volScalarFields

        k
        nut
        omega
        p

    Reconstructing volVectorFields

        U

    Reconstructing surfaceScalarFields

        meshPhi
        phi

    Reconstructing surfaceVectorFields

        Uf

Reconstructing point fields

    Reconstructing pointVectorFields

        pointDisplacement

No lagrangian fields

No FA fields

Time = 4.69

Reconstructing FV fields

    Reconstructing volScalarFields

        k
        nut
        omega
        p

    Reconstructing volVectorFields

        U

    Reconstructing surfaceScalarFields

        meshPhi
        phi

    Reconstructing surfaceVectorFields

        Uf

Reconstructing point fields

    Reconstructing pointVectorFields

        pointDisplacement

No lagrangian fields

No FA fields

Time = 4.7

Reconstructing FV fields

    Reconstructing volScalarFields

        k
        nut
        omega
        p

    Reconstructing volVectorFields

        U

    Reconstructing surfaceScalarFields

        meshPhi
        phi

    Reconstructing surfaceVectorFields

        Uf

Reconstructing point fields

    Reconstructing pointVectorFields

        pointDisplacement

No lagrangian fields

No FA fields

Time = 4.71

Reconstructing FV fields

    Reconstructing volScalarFields

        k
        nut
        omega
        p

    Reconstructing volVectorFields

        U

    Reconstructing surfaceScalarFields

        meshPhi
        phi

    Reconstructing surfaceVectorFields

        Uf

Reconstructing point fields

    Reconstructing pointVectorFields

        pointDisplacement

No lagrangian fields

No FA fields

Time = 4.72

Reconstructing FV fields

    Reconstructing volScalarFields

        k
        nut
        omega
        p

    Reconstructing volVectorFields

        U

    Reconstructing surfaceScalarFields

        meshPhi
        phi

    Reconstructing surfaceVectorFields

        Uf

Reconstructing point fields

    Reconstructing pointVectorFields

        pointDisplacement

No lagrangian fields

No FA fields

Time = 4.73

Reconstructing FV fields

    Reconstructing volScalarFields

        k
        nut
        omega
        p

    Reconstructing volVectorFields

        U

    Reconstructing surfaceScalarFields

        meshPhi
        phi

    Reconstructing surfaceVectorFields

        Uf

Reconstructing point fields

    Reconstructing pointVectorFields

        pointDisplacement

No lagrangian fields

No FA fields

Time = 4.74

Reconstructing FV fields

    Reconstructing volScalarFields

        k
        nut
        omega
        p

    Reconstructing volVectorFields

        U

    Reconstructing surfaceScalarFields

        meshPhi
        phi

    Reconstructing surfaceVectorFields

        Uf

Reconstructing point fields

    Reconstructing pointVectorFields

        pointDisplacement

No lagrangian fields

No FA fields

Time = 4.75

Reconstructing FV fields

    Reconstructing volScalarFields

        k
        nut
        omega
        p

    Reconstructing volVectorFields

        U

    Reconstructing surfaceScalarFields

        meshPhi
        phi

    Reconstructing surfaceVectorFields

        Uf

Reconstructing point fields

    Reconstructing pointVectorFields

        pointDisplacement

No lagrangian fields

No FA fields

Time = 4.76

Reconstructing FV fields

    Reconstructing volScalarFields

        k
        nut
        omega
        p

    Reconstructing volVectorFields

        U

    Reconstructing surfaceScalarFields

        meshPhi
        phi

    Reconstructing surfaceVectorFields

        Uf

Reconstructing point fields

    Reconstructing pointVectorFields

        pointDisplacement

No lagrangian fields

No FA fields

Time = 4.77

Reconstructing FV fields

    Reconstructing volScalarFields

        k
        nut
        omega
        p

    Reconstructing volVectorFields

        U

    Reconstructing surfaceScalarFields

        meshPhi
        phi

    Reconstructing surfaceVectorFields

        Uf

Reconstructing point fields

    Reconstructing pointVectorFields

        pointDisplacement

No lagrangian fields

No FA fields

Time = 4.78

Reconstructing FV fields

    Reconstructing volScalarFields

        k
        nut
        omega
        p

    Reconstructing volVectorFields

        U

    Reconstructing surfaceScalarFields

        meshPhi
        phi

    Reconstructing surfaceVectorFields

        Uf

Reconstructing point fields

    Reconstructing pointVectorFields

        pointDisplacement

No lagrangian fields

No FA fields

Time = 4.79

Reconstructing FV fields

    Reconstructing volScalarFields

        k
        nut
        omega
        p

    Reconstructing volVectorFields

        U

    Reconstructing surfaceScalarFields

        meshPhi
        phi

    Reconstructing surfaceVectorFields

        Uf

Reconstructing point fields

    Reconstructing pointVectorFields

        pointDisplacement

No lagrangian fields

No FA fields

Time = 4.8

Reconstructing FV fields

    Reconstructing volScalarFields

        k
        nut
        omega
        p

    Reconstructing volVectorFields

        U

    Reconstructing surfaceScalarFields

        meshPhi
        phi

    Reconstructing surfaceVectorFields

        Uf

Reconstructing point fields

    Reconstructing pointVectorFields

        pointDisplacement

No lagrangian fields

No FA fields

Time = 4.81

Reconstructing FV fields

    Reconstructing volScalarFields

        k
        nut
        omega
        p

    Reconstructing volVectorFields

        U

    Reconstructing surfaceScalarFields

        meshPhi
        phi

    Reconstructing surfaceVectorFields

        Uf

Reconstructing point fields

    Reconstructing pointVectorFields

        pointDisplacement

No lagrangian fields

No FA fields

Time = 4.82

Reconstructing FV fields

    Reconstructing volScalarFields

        k
        nut
        omega
        p

    Reconstructing volVectorFields

        U

    Reconstructing surfaceScalarFields

        meshPhi
        phi

    Reconstructing surfaceVectorFields

        Uf

Reconstructing point fields

    Reconstructing pointVectorFields

        pointDisplacement

No lagrangian fields

No FA fields

Time = 4.83

Reconstructing FV fields

    Reconstructing volScalarFields

        k
        nut
        omega
        p

    Reconstructing volVectorFields

        U

    Reconstructing surfaceScalarFields

        meshPhi
        phi

    Reconstructing surfaceVectorFields

        Uf

Reconstructing point fields

    Reconstructing pointVectorFields

        pointDisplacement

No lagrangian fields

No FA fields

Time = 4.84

Reconstructing FV fields

    Reconstructing volScalarFields

        k
        nut
        omega
        p

    Reconstructing volVectorFields

        U

    Reconstructing surfaceScalarFields

        meshPhi
        phi

    Reconstructing surfaceVectorFields

        Uf

Reconstructing point fields

    Reconstructing pointVectorFields

        pointDisplacement

No lagrangian fields

No FA fields

Time = 4.85

Reconstructing FV fields

    Reconstructing volScalarFields

        k
        nut
        omega
        p

    Reconstructing volVectorFields

        U

    Reconstructing surfaceScalarFields

        meshPhi
        phi

    Reconstructing surfaceVectorFields

        Uf

Reconstructing point fields

    Reconstructing pointVectorFields

        pointDisplacement

No lagrangian fields

No FA fields

Time = 4.86

Reconstructing FV fields

    Reconstructing volScalarFields

        k
        nut
        omega
        p

    Reconstructing volVectorFields

        U

    Reconstructing surfaceScalarFields

        meshPhi
        phi

    Reconstructing surfaceVectorFields

        Uf

Reconstructing point fields

    Reconstructing pointVectorFields

        pointDisplacement

No lagrangian fields

No FA fields

Time = 4.87

Reconstructing FV fields

    Reconstructing volScalarFields

        k
        nut
        omega
        p

    Reconstructing volVectorFields

        U

    Reconstructing surfaceScalarFields

        meshPhi
        phi

    Reconstructing surfaceVectorFields

        Uf

Reconstructing point fields

    Reconstructing pointVectorFields

        pointDisplacement

No lagrangian fields

No FA fields

Time = 4.88

Reconstructing FV fields

    Reconstructing volScalarFields

        k
        nut
        omega
        p

    Reconstructing volVectorFields

        U

    Reconstructing surfaceScalarFields

        meshPhi
        phi

    Reconstructing surfaceVectorFields

        Uf

Reconstructing point fields

    Reconstructing pointVectorFields

        pointDisplacement

No lagrangian fields

No FA fields

Time = 4.89

Reconstructing FV fields

    Reconstructing volScalarFields

        k
        nut
        omega
        p

    Reconstructing volVectorFields

        U

    Reconstructing surfaceScalarFields

        meshPhi
        phi

    Reconstructing surfaceVectorFields

        Uf

Reconstructing point fields

    Reconstructing pointVectorFields

        pointDisplacement

No lagrangian fields

No FA fields

Time = 4.9

Reconstructing FV fields

    Reconstructing volScalarFields

        k
        nut
        omega
        p

    Reconstructing volVectorFields

        U

    Reconstructing surfaceScalarFields

        meshPhi
        phi

    Reconstructing surfaceVectorFields

        Uf

Reconstructing point fields

    Reconstructing pointVectorFields

        pointDisplacement

No lagrangian fields

No FA fields

Time = 4.91

Reconstructing FV fields

    Reconstructing volScalarFields

        k
        nut
        omega
        p

    Reconstructing volVectorFields

        U

    Reconstructing surfaceScalarFields

        meshPhi
        phi

    Reconstructing surfaceVectorFields

        Uf

Reconstructing point fields

    Reconstructing pointVectorFields

        pointDisplacement

No lagrangian fields

No FA fields

Time = 4.92

Reconstructing FV fields

    Reconstructing volScalarFields

        k
        nut
        omega
        p

    Reconstructing volVectorFields

        U

    Reconstructing surfaceScalarFields

        meshPhi
        phi

    Reconstructing surfaceVectorFields

        Uf

Reconstructing point fields

    Reconstructing pointVectorFields

        pointDisplacement

No lagrangian fields

No FA fields

Time = 4.93

Reconstructing FV fields

    Reconstructing volScalarFields

        k
        nut
        omega
        p

    Reconstructing volVectorFields

        U

    Reconstructing surfaceScalarFields

        meshPhi
        phi

    Reconstructing surfaceVectorFields

        Uf

Reconstructing point fields

    Reconstructing pointVectorFields

        pointDisplacement

No lagrangian fields

No FA fields

Time = 4.94

Reconstructing FV fields

    Reconstructing volScalarFields

        k
        nut
        omega
        p

    Reconstructing volVectorFields

        U

    Reconstructing surfaceScalarFields

        meshPhi
        phi

    Reconstructing surfaceVectorFields

        Uf

Reconstructing point fields

    Reconstructing pointVectorFields

        pointDisplacement

No lagrangian fields

No FA fields

Time = 4.95

Reconstructing FV fields

    Reconstructing volScalarFields

        k
        nut
        omega
        p

    Reconstructing volVectorFields

        U

    Reconstructing surfaceScalarFields

        meshPhi
        phi

    Reconstructing surfaceVectorFields

        Uf

Reconstructing point fields

    Reconstructing pointVectorFields

        pointDisplacement

No lagrangian fields

No FA fields

Time = 4.96

Reconstructing FV fields

    Reconstructing volScalarFields

        k
        nut
        omega
        p

    Reconstructing volVectorFields

        U

    Reconstructing surfaceScalarFields

        meshPhi
        phi

    Reconstructing surfaceVectorFields

        Uf

Reconstructing point fields

    Reconstructing pointVectorFields

        pointDisplacement

No lagrangian fields

No FA fields

Time = 4.97

Reconstructing FV fields

    Reconstructing volScalarFields

        k
        nut
        omega
        p

    Reconstructing volVectorFields

        U

    Reconstructing surfaceScalarFields

        meshPhi
        phi

    Reconstructing surfaceVectorFields

        Uf

Reconstructing point fields

    Reconstructing pointVectorFields

        pointDisplacement

No lagrangian fields

No FA fields

Time = 4.98

Reconstructing FV fields

    Reconstructing volScalarFields

        k
        nut
        omega
        p

    Reconstructing volVectorFields

        U

    Reconstructing surfaceScalarFields

        meshPhi
        phi

    Reconstructing surfaceVectorFields

        Uf

Reconstructing point fields

    Reconstructing pointVectorFields

        pointDisplacement

No lagrangian fields

No FA fields

Time = 4.99

Reconstructing FV fields

    Reconstructing volScalarFields

        k
        nut
        omega
        p

    Reconstructing volVectorFields

        U

    Reconstructing surfaceScalarFields

        meshPhi
        phi

    Reconstructing surfaceVectorFields

        Uf

Reconstructing point fields

    Reconstructing pointVectorFields

        pointDisplacement

No lagrangian fields

No FA fields

Time = 5

Reconstructing FV fields

    Reconstructing volScalarFields

        k
        nut
        omega
        p

    Reconstructing volVectorFields

        U

    Reconstructing surfaceScalarFields

        meshPhi
        phi

    Reconstructing surfaceVectorFields

        Uf

Reconstructing point fields

    Reconstructing pointVectorFields

        pointDisplacement

No lagrangian fields

No FA fields


End

